 Abaqus/Standard 2023                  DATE 27-May-2024 TIME 16:51:56
 SUMMARY OF JOB INFORMATION:
 STEP  INC ATT SEVERE EQUIL TOTAL  TOTAL      STEP       INC OF       DOF    IF
               DISCON ITERS ITERS  TIME/    TIME/LPF    TIME/LPF    MONITOR RIKS
               ITERS               FREQ
   1     1   1     0     2     2  1.00e-05   1.00e-05   1.000e-05 
   1     2   1     0     1     1  2.00e-05   2.00e-05   1.000e-05 
   1     3   1     0     1     1  3.50e-05   3.50e-05   1.500e-05 
   1     4   1     0     1     1  5.75e-05   5.75e-05   2.250e-05 
   1     5   1     0     1     1  9.13e-05   9.13e-05   3.375e-05 
   1     6   1     0     1     1  0.000142   0.000142   5.063e-05 
   1     7   1     0     1     1  0.000218   0.000218   7.594e-05 
   1     8   1     0     1     1  0.000332   0.000332   0.0001139 
   1     9   1     0     1     1  0.000503   0.000503   0.0001709 
   1    10   1     0     1     1  0.000759   0.000759   0.0002563 
   1    11   1     0     1     1  0.00114    0.00114    0.0003844 
   1    12   1     0     1     1  0.00172    0.00172    0.0005767 
   1    13   1     0     3     3  0.00258    0.00258    0.0008650 
   1    14   1     0     9     9  0.00388    0.00388    0.001297  
   1    15   1     0     2     2  0.00518    0.00518    0.001297  
   1    16   1     0     3     3  0.00648    0.00648    0.001297  
   1    17   1     0     1     1  0.00842    0.00842    0.001946  
   1    18   1     0    10    10  0.0113     0.0113     0.002919  
   1    19   1     0     9     9  0.0143     0.0143     0.002919  
   1    20   1     0    10    10  0.0172     0.0172     0.002919  
   1    21   1     0    10    10  0.0201     0.0201     0.002919  
   1    22   1     0    10    10  0.0230     0.0230     0.002919  
   1    23   1     0    10    10  0.0259     0.0259     0.002919  
   1    24   1     0     9     9  0.0289     0.0289     0.002919  
   1    25   1     0     1     1  0.0318     0.0318     0.002919  
   1    26   1     0     7     7  0.0347     0.0347     0.002919  
   1    27   1     0     3     3  0.0376     0.0376     0.002919  
   1    28   1     0     4     4  0.0405     0.0405     0.002919  
   1    29   1U    0     4     4  0.0405     0.0405     0.004379  
   1    29   2     0     1     1  0.0416     0.0416     0.001095  
   1    30   1     0     2     2  0.0433     0.0433     0.001642  
   1    31   1     0     2     2  0.0457     0.0457     0.002463  
   1    32   1U    0    16    16  0.0457     0.0457     0.003695  
   1    32   2     0     1     1  0.0467     0.0467     0.0009237 
   1    33   1     0     1     1  0.0480     0.0480     0.001386  
   1    34   1     0     3     3  0.0501     0.0501     0.002078  
   1    35   1     0     1     1  0.0532     0.0532     0.003117  
   1    36   1U    0     4     4  0.0532     0.0532     0.004676  
   1    36   2     0     1     1  0.0544     0.0544     0.001169  
   1    37   1     0     1     1  0.0562     0.0562     0.001754  
   1    38   1     0     1     1  0.0588     0.0588     0.002630  
   1    39   1     0    10    10  0.0627     0.0627     0.003945  
   1    40   1U    0     9     9  0.0627     0.0627     0.003945  
   1    40   2     0     3     3  0.0647     0.0647     0.001973  
   1    41   1     0     2     2  0.0667     0.0667     0.001973  
   1    42   1     0     2     2  0.0696     0.0696     0.002959  
   1    43   1U    0     4     4  0.0696     0.0696     0.004439  
   1    43   2     0     1     1  0.0708     0.0708     0.001110  
   1    44   1     0     1     1  0.0724     0.0724     0.001665  
   1    45   1     0     4     4  0.0749     0.0749     0.002497  
   1    46   1     0    10    10  0.0787     0.0787     0.003745  
   1    47   1     0    10    10  0.0824     0.0824     0.003745  
   1    48   1     0    10    10  0.0862     0.0862     0.003745  
   1    49   1     0    10    10  0.0899     0.0899     0.003745  
   1    50   1     0    10    10  0.0936     0.0936     0.003745  
   1    51   1     0    10    10  0.0974     0.0974     0.003745  
   1    52   1     0    10    10  0.101      0.101      0.003745  
   1    53   1     0    10    10  0.105      0.105      0.003745  
   1    54   1     0    10    10  0.109      0.109      0.003745  
   1    55   1     0     9     9  0.112      0.112      0.003745  
   1    56   1     0     2     2  0.116      0.116      0.003745  
   1    57   1     0    10    10  0.120      0.120      0.003745  
   1    58   1     0     8     8  0.124      0.124      0.003745  
   1    59   1     0     8     8  0.127      0.127      0.003745  
   1    60   1     0     8     8  0.131      0.131      0.003745  
   1    61   1     0     7     7  0.135      0.135      0.003745  
   1    62   1     0     1     1  0.139      0.139      0.003745  
   1    63   1     0     5     5  0.142      0.142      0.003745  
   1    64   1     0     4     4  0.146      0.146      0.003745  
   1    65   1     0     8     8  0.150      0.150      0.003745  
   1    66   1     0     6     6  0.154      0.154      0.003745  
   1    67   1     0     7     7  0.157      0.157      0.003745  
   1    68   1     0     1     1  0.161      0.161      0.003745  
   1    69   1     0     4     4  0.165      0.165      0.003745  
   1    70   1U    0     4     4  0.165      0.165      0.005618  
   1    70   2     0     1     1  0.166      0.166      0.001404  
   1    71   1     0     2     2  0.168      0.168      0.002107  
   1    72   1     0     2     2  0.171      0.171      0.003160  
   1    73   1     0    10    10  0.176      0.176      0.004740  
   1    74   1     0    14    14  0.181      0.181      0.004740  
   1    75   1     0     6     6  0.185      0.185      0.003555  
   1    76   1     0     3     3  0.188      0.188      0.003555  
   1    77   1     0     1     1  0.192      0.192      0.003555  
   1    78   1U    0    16    16  0.192      0.192      0.005332  
   1    78   2     0     1     1  0.193      0.193      0.001333  
   1    79   1     0     1     1  0.195      0.195      0.002000  
   1    80   1     0     1     1  0.198      0.198      0.002999  
   1    81   1     0     6     6  0.202      0.202      0.004499  
   1    82   1     0    10    10  0.207      0.207      0.004499  
   1    83   1     0    10    10  0.211      0.211      0.004499  
   1    84   1     0    10    10  0.216      0.216      0.004499  
   1    85   1     0     9     9  0.220      0.220      0.004499  
   1    86   1     0     2     2  0.225      0.225      0.004499  
   1    87   1     0    10    10  0.229      0.229      0.004499  
   1    88   1     0     9     9  0.234      0.234      0.004499  
   1    89   1     0     2     2  0.238      0.238      0.004499  
   1    90   1     0    10    10  0.243      0.243      0.004499  
   1    91   1     0     8     8  0.247      0.247      0.004499  
   1    92   1     0     8     8  0.252      0.252      0.004499  
   1    93   1     0     8     8  0.256      0.256      0.004499  
   1    94   1     0     7     7  0.261      0.261      0.004499  
   1    95   1     0     2     2  0.265      0.265      0.004499  
   1    96   1     0     8     8  0.270      0.270      0.004499  
   1    97   1     0     7     7  0.274      0.274      0.004499  
   1    98   1     0     2     2  0.279      0.279      0.004499  
   1    99   1     0     7     7  0.283      0.283      0.004499  
   1   100   1     0     2     2  0.288      0.288      0.004499  
                          
 THE ANALYSIS HAS NOT BEEN COMPLETED
