 Abaqus/Standard 2023                  DATE 27-May-2024 TIME 16:51:56
 SUMMARY OF JOB INFORMATION:
 STEP  INC ATT SEVERE EQUIL TOTAL  TOTAL      STEP       INC OF       DOF    IF
               DISCON ITERS ITERS  TIME/    TIME/LPF    TIME/LPF    MONITOR RIKS
               ITERS               FREQ
   1     1   1     0     2     2  1.00e-05   1.00e-05   1.000e-05 
   1     2   1     0     1     1  2.00e-05   2.00e-05   1.000e-05 
   1     3   1     0     1     1  3.50e-05   3.50e-05   1.500e-05 
   1     4   1     0     1     1  5.75e-05   5.75e-05   2.250e-05 
   1     5   1     0     1     1  9.13e-05   9.13e-05   3.375e-05 
   1     6   1     0     1     1  0.000142   0.000142   5.063e-05 
   1     7   1     0     1     1  0.000218   0.000218   7.594e-05 
   1     8   1     0     1     1  0.000332   0.000332   0.0001139 
   1     9   1     0     1     1  0.000503   0.000503   0.0001709 
   1    10   1     0     1     1  0.000759   0.000759   0.0002563 
   1    11   1     0     1     1  0.00114    0.00114    0.0003844 
   1    12   1     0     1     1  0.00172    0.00172    0.0005767 
   1    13   1     0    15    15  0.00258    0.00258    0.0008650 
   1    14   1     0    14    14  0.00323    0.00323    0.0006487 
   1    15   1     0    11    11  0.00372    0.00372    0.0004865 
   1    16   1     0     6     6  0.00409    0.00409    0.0003649 
   1    17   1     0     6     6  0.00445    0.00445    0.0003649 
   1    18   1     0     5     5  0.00481    0.00481    0.0003649 
   1    19   1     0     4     4  0.00518    0.00518    0.0003649 
   1    20   1     0     1     1  0.00554    0.00554    0.0003649 
   1    21   1     0    10    10  0.00609    0.00609    0.0005474 
   1    22   1     0     7     7  0.00664    0.00664    0.0005474 
   1    23   1     0     3     3  0.00719    0.00719    0.0005474 
   1    24   1     0     1     1  0.00773    0.00773    0.0005474 
   1    25   1     0     9     9  0.00856    0.00856    0.0008211 
   1    26   1     0     8     8  0.00938    0.00938    0.0008211 
   1    27   1     0     5     5  0.0102     0.0102     0.0008211 
   1    28   1     0     1     1  0.0110     0.0110     0.0008211 
   1    29   1     0     2     2  0.0118     0.0118     0.0008211 
   1    30   1     0     9     9  0.0131     0.0131     0.001232  
   1    31   1     0     7     7  0.0143     0.0143     0.001232  
   1    32   1     0     5     5  0.0155     0.0155     0.001232  
   1    33   1     0     4     4  0.0168     0.0168     0.001232  
   1    34   1     0     4     4  0.0180     0.0180     0.001232  
   1    35   1     0     9     9  0.0198     0.0198     0.001847  
   1    36   1     0     7     7  0.0217     0.0217     0.001847  
   1    37   1     0     5     5  0.0235     0.0235     0.001847  
   1    38   1     0     4     4  0.0254     0.0254     0.001847  
   1    39   1     0     4     4  0.0272     0.0272     0.001847  
   1    40   1     0     9     9  0.0300     0.0300     0.002771  
   1    41   1     0     7     7  0.0328     0.0328     0.002771  
   1    42   1     0     6     6  0.0355     0.0355     0.002771  
   1    43   1     0     1     1  0.0383     0.0383     0.002771  
   1    44   1     0     1     1  0.0411     0.0411     0.002771  
   1    45   1     0     1     1  0.0452     0.0452     0.004157  
   1    46   1     0     1     1  0.0515     0.0515     0.006235  
   1    47   1     0     1     1  0.0608     0.0608     0.009352  
   1    48   1     0     1     1  0.0749     0.0749     0.01403   
   1    49   1     0     1     1  0.0959     0.0959     0.02104   
   1    50   1     0     1     1  0.127      0.127      0.03156   
   1    51   1     0     1     1  0.175      0.175      0.04735   
   1    52   1     0     1     1  0.246      0.246      0.07102   
   1    53   1     0     1     1  0.346      0.346      0.1000    
   1    54   1     0     1     1  0.446      0.446      0.1000    
   1    55   1     0     1     1  0.546      0.546      0.1000    
   1    56   1     0     1     1  0.646      0.646      0.1000    
   1    57   1     0     1     1  0.746      0.746      0.1000    
   1    58   1     0     1     1  0.846      0.846      0.1000    
   1    59   1     0     1     1  0.946      0.946      0.1000    
   1    60   1     0     1     1  1.00       1.00       0.05417   
                          
 THE ANALYSIS HAS COMPLETED SUCCESSFULLY
