1

   Abaqus 2023                                  Date 27-May-2024   Time 16:51:55
   For use by ETH ZUERICH under license from Dassault Systemes or its subsidiary.

                                                                                 
                                                                                 
 STEP    1     INCREMENT     1     STEP TIME    0.00    


                        S T E P       1     S T A T I C   A N A L Y S I S


                                                                                          

     AUTOMATIC TIME CONTROL WITH -
          A SUGGESTED INITIAL TIME INCREMENT OF                1.000E-05
          AND A TOTAL TIME PERIOD OF                            1.00    
          THE MINIMUM TIME INCREMENT ALLOWED IS                1.000E-05
          THE MAXIMUM TIME INCREMENT ALLOWED IS                0.100    

     LINEAR EQUATION SOLVER TYPE         DIRECT SPARSE

 CONVERGENCE TOLERANCE PARAMETERS FOR FORCE    
     CRITERION FOR RESIDUAL FORCE     FOR A NONLINEAR PROBLEM          5.000E-03
     CRITERION FOR DISP.    CORRECTION IN A NONLINEAR PROBLEM          1.000E-02
     INITIAL VALUE OF TIME AVERAGE FORCE                               1.000E-02
     AVERAGE FORCE     IS TIME AVERAGE FORCE    
     ALTERNATE CRIT. FOR RESIDUAL FORCE     FOR A NONLINEAR PROBLEM    2.000E-02
     CRITERION FOR ZERO FORCE     RELATIVE TO TIME AVRG. FORCE         1.000E-05
     CRITERION FOR RESIDUAL FORCE     WHEN THERE IS ZERO FLUX          1.000E-05
     CRITERION FOR DISP.    CORRECTION WHEN THERE IS ZERO FLUX         1.000E-03
     CRITERION FOR RESIDUAL FORCE     FOR A LINEAR INCREMENT           1.000E-08
     FIELD CONVERSION RATIO                                             1.00    
     CRITERION FOR ZERO FORCE     REL. TO TIME AVRG. MAX. FORCE        1.000E-05
     CRITERION FOR ZERO DISP.    RELATIVE TO CHARACTERISTIC LENGTH     1.000E-08

     VOLUMETRIC STRAIN COMPATIBILITY TOLERANCE FOR HYBRID SOLIDS       1.000E-05
     AXIAL STRAIN COMPATIBILITY TOLERANCE FOR HYBRID BEAMS             1.000E-05
     TRANS. SHEAR STRAIN COMPATIBILITY TOLERANCE FOR HYBRID BEAMS      1.000E-05
     SOFT CONTACT CONSTRAINT COMPATIBILITY TOLERANCE FOR P>P0          5.000E-03
     SOFT CONTACT CONSTRAINT COMPATIBILITY TOLERANCE FOR P=0.0         0.100    
     CONTACT FORCE ERROR TOLERANCE FOR CONVERT SDI=YES                 1.00    
     DISPLACEMENT COMPATIBILITY TOLERANCE FOR DCOUP ELEMENTS           1.000E-05
     ROTATION COMPATIBILITY TOLERANCE FOR DCOUP ELEMENTS               1.000E-05

 EQUILIBRIUM WILL BE CHECKED FOR SEVERE DISCONTINUITY ITERATIONS

 TIME INCREMENTATION CONTROL PARAMETERS:
     FIRST EQUILIBRIUM ITERATION FOR CONSECUTIVE DIVERGENCE CHECK              4
     EQUILIBRIUM ITERATION AT WHICH LOG. CONVERGENCE RATE CHECK BEGINS         8
     EQUILIBRIUM ITERATION AFTER WHICH ALTERNATE RESIDUAL IS USED              9
     MAXIMUM EQUILIBRIUM ITERATIONS ALLOWED                                   16
     EQUILIBRIUM ITERATION COUNT FOR CUT-BACK IN NEXT INCREMENT               10
     MAXIMUM EQUILIB. ITERS IN TWO INCREMENTS FOR TIME INCREMENT INCREASE      4
     MAXIMUM ITERATIONS FOR SEVERE DISCONTINUITIES                            50
     MAXIMUM ATTEMPTS ALLOWED IN AN INCREMENT                                  5
     MAXIMUM DISCON. ITERS IN TWO INCREMENTS FOR TIME INCREMENT INCREASE      50
     MAXIMUM CONTACT AUGMENTATIONS FOR *SURFACE BEHAVIOR,AUGMENTED LAGRANGE   50
     CUT-BACK FACTOR AFTER DIVERGENCE                                 0.2500    
     CUT-BACK FACTOR FOR TOO SLOW CONVERGENCE                         0.5000    
     CUT-BACK FACTOR AFTER TOO MANY EQUILIBRIUM ITERATIONS            0.7500    
     CUT-BACK FACTOR AFTER TOO MANY SEVERE DISCONTINUITY ITERATIONS   0.2500    
     CUT-BACK FACTOR AFTER PROBLEMS IN ELEMENT ASSEMBLY               0.2500    
     INCREASE FACTOR AFTER TWO INCREMENTS THAT CONVERGE QUICKLY        1.500    
     MAX. TIME INCREMENT INCREASE FACTOR ALLOWED                       1.500    
     MAX. TIME INCREMENT INCREASE FACTOR ALLOWED (DYNAMICS)            1.250    
     MAX. TIME INCREMENT INCREASE FACTOR ALLOWED (DIFFUSION)           2.000    
     MINIMUM TIME INCREMENT RATIO FOR EXTRAPOLATION TO OCCUR          0.1000    
     MAX. RATIO OF TIME INCREMENT TO STABILITY LIMIT                   1.000    
     FRACTION OF STABILITY LIMIT FOR NEW TIME INCREMENT               0.9500    
     TIME INCREMENT INCREASE FACTOR BEFORE A TIME POINT                1.000    
     GLOBAL STABILIZATION CONTROL IS NOT USED

          PRINT OF INCREMENT NUMBER, TIME, ETC., EVERY    1  INCREMENTS

     THE MAXIMUM NUMBER OF INCREMENTS IN THIS STEP IS                     100

          LARGE DISPLACEMENT THEORY WILL BE USED

     LINEAR EXTRAPOLATION WILL BE USED

     CHARACTERISTIC ELEMENT LENGTH     0.100    

     DETAILS REGARDING ACTUAL SOLUTION WAVEFRONT REQUESTED

     DETAILED OUTPUT OF DIAGNOSTICS TO DATABASE REQUESTED

     PRINT OF INCREMENT NUMBER, TIME, ETC., TO THE MESSAGE FILE EVERY     1  INCREMENTS

     COLLECTING MODEL CONSTRAINT INFORMATION FOR OVERCONSTRAINT CHECKS

     COLLECTING STEP CONSTRAINT INFORMATION FOR OVERCONSTRAINT CHECKS


  INCREMENT     1 STARTS. ATTEMPT NUMBER  1, TIME INCREMENT  1.000E-05
 
	SYMMETRIC DIRECT SPARSE SOLVER RUNNING ON
 	1 HOST:        1 MPI RANK  x 1 THREAD
 	NUMBER OF EQUATIONS:     18
 	NUMBER OF RHS:           1
 	NUMBER OF FLOPS:         2.109e+03

     CHECK POINT  START OF SOLVER     

     CHECK POINT  END OF SOLVER       

       ELAPSED USER TIME (SEC)      =   0.0000    
       ELAPSED SYSTEM TIME (SEC)    =   0.0000    
       ELAPSED TOTAL CPU TIME (SEC) =   0.0000    
       ELAPSED WALLCLOCK TIME (SEC) =            0

               CONVERGENCE CHECKS FOR EQUILIBRIUM ITERATION     1


 AVERAGE FORCE                      1.731E-03   TIME AVG. FORCE       1.731E-03
 LARGEST SCALED RESIDUAL FORCE      1.948E-08   AT NODE          1   DOF  3
  CORRESPONDING RESIDUAL FORCE      1.948E-08
 LARGEST INCREMENT OF DISP.         1.000E-06   AT NODE          1   DOF  2
 LARGEST CORRECTION TO DISP.        1.000E-06   AT NODE          1   DOF  2
          DISP.    CORRECTION TOO LARGE COMPARED TO DISP.    INCREMENT
 
	SYMMETRIC DIRECT SPARSE SOLVER RUNNING ON
 	1 HOST:        1 MPI RANK  x 1 THREAD
 	NUMBER OF EQUATIONS:     18
 	NUMBER OF RHS:           1
 	NUMBER OF FLOPS:         2.109e+03

     CHECK POINT  START OF SOLVER     

     CHECK POINT  END OF SOLVER       

       ELAPSED USER TIME (SEC)      =   0.0000    
       ELAPSED SYSTEM TIME (SEC)    =   0.0000    
       ELAPSED TOTAL CPU TIME (SEC) =   0.0000    
       ELAPSED WALLCLOCK TIME (SEC) =            0

               CONVERGENCE CHECKS FOR EQUILIBRIUM ITERATION     2


 AVERAGE FORCE                      1.731E-03   TIME AVG. FORCE       1.731E-03
 LARGEST SCALED RESIDUAL FORCE      1.561E-18   AT NODE          1   DOF  1
  CORRESPONDING RESIDUAL FORCE      1.561E-18
 LARGEST INCREMENT OF DISP.         1.000E-06   AT NODE          1   DOF  2
 LARGEST CORRECTION TO DISP.        1.950E-12   AT NODE          1   DOF  3
          THE FORCE     EQUILIBRIUM EQUATIONS HAVE CONVERGED

 ITERATION SUMMARY FOR THE INCREMENT:   2 TOTAL ITERATIONS, OF WHICH
   0 ARE SEVERE DISCONTINUITY ITERATIONS AND  2 ARE EQUILIBRIUM ITERATIONS.

 TIME INCREMENT COMPLETED  1.000E-05,  FRACTION OF STEP COMPLETED  1.000E-05
 STEP TIME COMPLETED       1.000E-05,  TOTAL TIME COMPLETED        1.000E-05


  INCREMENT     2 STARTS. ATTEMPT NUMBER  1, TIME INCREMENT  1.000E-05
 
	SYMMETRIC DIRECT SPARSE SOLVER RUNNING ON
 	1 HOST:        1 MPI RANK  x 1 THREAD
 	NUMBER OF EQUATIONS:     18
 	NUMBER OF RHS:           1
 	NUMBER OF FLOPS:         2.109e+03

     CHECK POINT  START OF SOLVER     

     CHECK POINT  END OF SOLVER       

       ELAPSED USER TIME (SEC)      =   0.0000    
       ELAPSED SYSTEM TIME (SEC)    =   0.0000    
       ELAPSED TOTAL CPU TIME (SEC) =   0.0000    
       ELAPSED WALLCLOCK TIME (SEC) =            0

               CONVERGENCE CHECKS FOR EQUILIBRIUM ITERATION     1


 AVERAGE FORCE                      1.039E-02   TIME AVG. FORCE       6.059E-03
 LARGEST SCALED RESIDUAL FORCE      1.719E-18   AT NODE          1   DOF  1
  CORRESPONDING RESIDUAL FORCE      1.719E-18
 LARGEST INCREMENT OF DISP.         1.000E-06   AT NODE          1   DOF  2
 LARGEST CORRECTION TO DISP.        3.900E-12   AT NODE          3   DOF  1
          THE FORCE     EQUILIBRIUM RESPONSE WAS LINEAR IN THIS INCREMENT
          TIME INCREMENT MAY NOW INCREASE TO    1.500E-05

 ITERATION SUMMARY FOR THE INCREMENT:   1 TOTAL ITERATIONS, OF WHICH
   0 ARE SEVERE DISCONTINUITY ITERATIONS AND  1 ARE EQUILIBRIUM ITERATIONS.

 TIME INCREMENT COMPLETED  1.000E-05,  FRACTION OF STEP COMPLETED  2.000E-05
 STEP TIME COMPLETED       2.000E-05,  TOTAL TIME COMPLETED        2.000E-05


  INCREMENT     3 STARTS. ATTEMPT NUMBER  1, TIME INCREMENT  1.500E-05
 
	SYMMETRIC DIRECT SPARSE SOLVER RUNNING ON
 	1 HOST:        1 MPI RANK  x 1 THREAD
 	NUMBER OF EQUATIONS:     18
 	NUMBER OF RHS:           1
 	NUMBER OF FLOPS:         2.109e+03

     CHECK POINT  START OF SOLVER     

     CHECK POINT  END OF SOLVER       

       ELAPSED USER TIME (SEC)      =   0.0000    
       ELAPSED SYSTEM TIME (SEC)    =   0.0000    
       ELAPSED TOTAL CPU TIME (SEC) =   0.0000    
       ELAPSED WALLCLOCK TIME (SEC) =            0

               CONVERGENCE CHECKS FOR EQUILIBRIUM ITERATION     1


 AVERAGE FORCE                      1.818E-02   TIME AVG. FORCE       1.010E-02
 LARGEST SCALED RESIDUAL FORCE      1.773E-18   AT NODE          4   DOF  1
  CORRESPONDING RESIDUAL FORCE      1.773E-18
 LARGEST INCREMENT OF DISP.         1.500E-06   AT NODE          1   DOF  2
 LARGEST CORRECTION TO DISP.        7.312E-12   AT NODE          6   DOF  3
          THE FORCE     EQUILIBRIUM RESPONSE WAS LINEAR IN THIS INCREMENT
          TIME INCREMENT MAY NOW INCREASE TO    2.250E-05

 ITERATION SUMMARY FOR THE INCREMENT:   1 TOTAL ITERATIONS, OF WHICH
   0 ARE SEVERE DISCONTINUITY ITERATIONS AND  1 ARE EQUILIBRIUM ITERATIONS.

 TIME INCREMENT COMPLETED  1.500E-05,  FRACTION OF STEP COMPLETED  3.500E-05
 STEP TIME COMPLETED       3.500E-05,  TOTAL TIME COMPLETED        3.500E-05


  INCREMENT     4 STARTS. ATTEMPT NUMBER  1, TIME INCREMENT  2.250E-05
 
	SYMMETRIC DIRECT SPARSE SOLVER RUNNING ON
 	1 HOST:        1 MPI RANK  x 1 THREAD
 	NUMBER OF EQUATIONS:     18
 	NUMBER OF RHS:           1
 	NUMBER OF FLOPS:         2.109e+03

     CHECK POINT  START OF SOLVER     

     CHECK POINT  END OF SOLVER       

       ELAPSED USER TIME (SEC)      =   0.0000    
       ELAPSED SYSTEM TIME (SEC)    =   0.0000    
       ELAPSED TOTAL CPU TIME (SEC) =   0.0000    
       ELAPSED WALLCLOCK TIME (SEC) =            0

               CONVERGENCE CHECKS FOR EQUILIBRIUM ITERATION     1


 AVERAGE FORCE                      2.986E-02   TIME AVG. FORCE       1.504E-02
 LARGEST SCALED RESIDUAL FORCE      1.235E-17   AT NODE          1   DOF  1
  CORRESPONDING RESIDUAL FORCE      1.235E-17
 LARGEST INCREMENT OF DISP.         2.250E-06   AT NODE          1   DOF  2
 LARGEST CORRECTION TO DISP.        1.645E-11   AT NODE          4   DOF  1
          THE FORCE     EQUILIBRIUM RESPONSE WAS LINEAR IN THIS INCREMENT
          TIME INCREMENT MAY NOW INCREASE TO    3.375E-05

 ITERATION SUMMARY FOR THE INCREMENT:   1 TOTAL ITERATIONS, OF WHICH
   0 ARE SEVERE DISCONTINUITY ITERATIONS AND  1 ARE EQUILIBRIUM ITERATIONS.

 TIME INCREMENT COMPLETED  2.250E-05,  FRACTION OF STEP COMPLETED  5.750E-05
 STEP TIME COMPLETED       5.750E-05,  TOTAL TIME COMPLETED        5.750E-05


  INCREMENT     5 STARTS. ATTEMPT NUMBER  1, TIME INCREMENT  3.375E-05
 
	SYMMETRIC DIRECT SPARSE SOLVER RUNNING ON
 	1 HOST:        1 MPI RANK  x 1 THREAD
 	NUMBER OF EQUATIONS:     18
 	NUMBER OF RHS:           1
 	NUMBER OF FLOPS:         2.109e+03

     CHECK POINT  START OF SOLVER     

     CHECK POINT  END OF SOLVER       

       ELAPSED USER TIME (SEC)      =   0.0000    
       ELAPSED SYSTEM TIME (SEC)    =   0.0000    
       ELAPSED TOTAL CPU TIME (SEC) =   0.0000    
       ELAPSED WALLCLOCK TIME (SEC) =            0

               CONVERGENCE CHECKS FOR EQUILIBRIUM ITERATION     1


 AVERAGE FORCE                      4.739E-02   TIME AVG. FORCE       2.151E-02
 LARGEST SCALED RESIDUAL FORCE      7.107E-17   AT NODE          1   DOF  3
  CORRESPONDING RESIDUAL FORCE      7.107E-17
 LARGEST INCREMENT OF DISP.         3.375E-06   AT NODE          1   DOF  2
 LARGEST CORRECTION TO DISP.        3.701E-11   AT NODE          1   DOF  1
          THE FORCE     EQUILIBRIUM RESPONSE WAS LINEAR IN THIS INCREMENT
          TIME INCREMENT MAY NOW INCREASE TO    5.063E-05

 ITERATION SUMMARY FOR THE INCREMENT:   1 TOTAL ITERATIONS, OF WHICH
   0 ARE SEVERE DISCONTINUITY ITERATIONS AND  1 ARE EQUILIBRIUM ITERATIONS.

 TIME INCREMENT COMPLETED  3.375E-05,  FRACTION OF STEP COMPLETED  9.125E-05
 STEP TIME COMPLETED       9.125E-05,  TOTAL TIME COMPLETED        9.125E-05


  INCREMENT     6 STARTS. ATTEMPT NUMBER  1, TIME INCREMENT  5.063E-05
 
	SYMMETRIC DIRECT SPARSE SOLVER RUNNING ON
 	1 HOST:        1 MPI RANK  x 1 THREAD
 	NUMBER OF EQUATIONS:     18
 	NUMBER OF RHS:           1
 	NUMBER OF FLOPS:         2.109e+03

     CHECK POINT  START OF SOLVER     

     CHECK POINT  END OF SOLVER       

       ELAPSED USER TIME (SEC)      =   0.0000    
       ELAPSED SYSTEM TIME (SEC)    =   0.0000    
       ELAPSED TOTAL CPU TIME (SEC) =   0.0000    
       ELAPSED WALLCLOCK TIME (SEC) =            0

               CONVERGENCE CHECKS FOR EQUILIBRIUM ITERATION     1


 AVERAGE FORCE                      7.367E-02   TIME AVG. FORCE       3.020E-02
 LARGEST SCALED RESIDUAL FORCE      3.916E-16   AT NODE          2   DOF  3
  CORRESPONDING RESIDUAL FORCE      3.916E-16
 LARGEST INCREMENT OF DISP.         5.062E-06   AT NODE          1   DOF  2
 LARGEST CORRECTION TO DISP.        8.328E-11   AT NODE          1   DOF  3
          THE FORCE     EQUILIBRIUM RESPONSE WAS LINEAR IN THIS INCREMENT
          TIME INCREMENT MAY NOW INCREASE TO    7.594E-05

 ITERATION SUMMARY FOR THE INCREMENT:   1 TOTAL ITERATIONS, OF WHICH
   0 ARE SEVERE DISCONTINUITY ITERATIONS AND  1 ARE EQUILIBRIUM ITERATIONS.

 TIME INCREMENT COMPLETED  5.063E-05,  FRACTION OF STEP COMPLETED  1.419E-04
 STEP TIME COMPLETED       1.419E-04,  TOTAL TIME COMPLETED        1.419E-04


  INCREMENT     7 STARTS. ATTEMPT NUMBER  1, TIME INCREMENT  7.594E-05
 
	SYMMETRIC DIRECT SPARSE SOLVER RUNNING ON
 	1 HOST:        1 MPI RANK  x 1 THREAD
 	NUMBER OF EQUATIONS:     18
 	NUMBER OF RHS:           1
 	NUMBER OF FLOPS:         2.109e+03

     CHECK POINT  START OF SOLVER     

     CHECK POINT  END OF SOLVER       

       ELAPSED USER TIME (SEC)      =   0.0000    
       ELAPSED SYSTEM TIME (SEC)    =   0.0000    
       ELAPSED TOTAL CPU TIME (SEC) =   0.0000    
       ELAPSED WALLCLOCK TIME (SEC) =            0

               CONVERGENCE CHECKS FOR EQUILIBRIUM ITERATION     1


 AVERAGE FORCE                      0.113       TIME AVG. FORCE       4.204E-02
 LARGEST SCALED RESIDUAL FORCE      1.997E-15   AT NODE          5   DOF  3
  CORRESPONDING RESIDUAL FORCE      1.997E-15
 LARGEST INCREMENT OF DISP.         7.594E-06   AT NODE          1   DOF  2
 LARGEST CORRECTION TO DISP.        1.873E-10   AT NODE          2   DOF  3
          THE FORCE     EQUILIBRIUM RESPONSE WAS LINEAR IN THIS INCREMENT
          TIME INCREMENT MAY NOW INCREASE TO    1.139E-04

 ITERATION SUMMARY FOR THE INCREMENT:   1 TOTAL ITERATIONS, OF WHICH
   0 ARE SEVERE DISCONTINUITY ITERATIONS AND  1 ARE EQUILIBRIUM ITERATIONS.

 TIME INCREMENT COMPLETED  7.594E-05,  FRACTION OF STEP COMPLETED  2.178E-04
 STEP TIME COMPLETED       2.178E-04,  TOTAL TIME COMPLETED        2.178E-04


  INCREMENT     8 STARTS. ATTEMPT NUMBER  1, TIME INCREMENT  1.139E-04
 
	SYMMETRIC DIRECT SPARSE SOLVER RUNNING ON
 	1 HOST:        1 MPI RANK  x 1 THREAD
 	NUMBER OF EQUATIONS:     18
 	NUMBER OF RHS:           1
 	NUMBER OF FLOPS:         2.109e+03

     CHECK POINT  START OF SOLVER     

     CHECK POINT  END OF SOLVER       

       ELAPSED USER TIME (SEC)      =   0.0000    
       ELAPSED SYSTEM TIME (SEC)    =   0.0000    
       ELAPSED TOTAL CPU TIME (SEC) =   0.0000    
       ELAPSED WALLCLOCK TIME (SEC) =            0

               CONVERGENCE CHECKS FOR EQUILIBRIUM ITERATION     1


 AVERAGE FORCE                      0.172       TIME AVG. FORCE       5.832E-02
 LARGEST SCALED RESIDUAL FORCE      1.009E-14   AT NODE          2   DOF  3
  CORRESPONDING RESIDUAL FORCE      1.009E-14
 LARGEST INCREMENT OF DISP.         1.139E-05   AT NODE          1   DOF  2
 LARGEST CORRECTION TO DISP.        4.215E-10   AT NODE          2   DOF  1
          THE FORCE     EQUILIBRIUM RESPONSE WAS LINEAR IN THIS INCREMENT
          TIME INCREMENT MAY NOW INCREASE TO    1.709E-04

 ITERATION SUMMARY FOR THE INCREMENT:   1 TOTAL ITERATIONS, OF WHICH
   0 ARE SEVERE DISCONTINUITY ITERATIONS AND  1 ARE EQUILIBRIUM ITERATIONS.

 TIME INCREMENT COMPLETED  1.139E-04,  FRACTION OF STEP COMPLETED  3.317E-04
 STEP TIME COMPLETED       3.317E-04,  TOTAL TIME COMPLETED        3.317E-04


  INCREMENT     9 STARTS. ATTEMPT NUMBER  1, TIME INCREMENT  1.709E-04
 
	SYMMETRIC DIRECT SPARSE SOLVER RUNNING ON
 	1 HOST:        1 MPI RANK  x 1 THREAD
 	NUMBER OF EQUATIONS:     18
 	NUMBER OF RHS:           1
 	NUMBER OF FLOPS:         2.109e+03

     CHECK POINT  START OF SOLVER     

     CHECK POINT  END OF SOLVER       

       ELAPSED USER TIME (SEC)      =   0.0000    
       ELAPSED SYSTEM TIME (SEC)    =   0.0000    
       ELAPSED TOTAL CPU TIME (SEC) =   0.0000    
       ELAPSED WALLCLOCK TIME (SEC) =            0

               CONVERGENCE CHECKS FOR EQUILIBRIUM ITERATION     1


 AVERAGE FORCE                      0.261       TIME AVG. FORCE       8.082E-02
 LARGEST SCALED RESIDUAL FORCE      5.112E-14   AT NODE          3   DOF  1
  CORRESPONDING RESIDUAL FORCE      5.112E-14
 LARGEST INCREMENT OF DISP.         1.709E-05   AT NODE          1   DOF  2
 LARGEST CORRECTION TO DISP.        9.480E-10   AT NODE          6   DOF  3
          THE FORCE     EQUILIBRIUM RESPONSE WAS LINEAR IN THIS INCREMENT
          TIME INCREMENT MAY NOW INCREASE TO    2.563E-04

 ITERATION SUMMARY FOR THE INCREMENT:   1 TOTAL ITERATIONS, OF WHICH
   0 ARE SEVERE DISCONTINUITY ITERATIONS AND  1 ARE EQUILIBRIUM ITERATIONS.

 TIME INCREMENT COMPLETED  1.709E-04,  FRACTION OF STEP COMPLETED  5.026E-04
 STEP TIME COMPLETED       5.026E-04,  TOTAL TIME COMPLETED        5.026E-04


  INCREMENT    10 STARTS. ATTEMPT NUMBER  1, TIME INCREMENT  2.563E-04
 
	SYMMETRIC DIRECT SPARSE SOLVER RUNNING ON
 	1 HOST:        1 MPI RANK  x 1 THREAD
 	NUMBER OF EQUATIONS:     18
 	NUMBER OF RHS:           1
 	NUMBER OF FLOPS:         2.109e+03

     CHECK POINT  START OF SOLVER     

     CHECK POINT  END OF SOLVER       

       ELAPSED USER TIME (SEC)      =   0.0000    
       ELAPSED SYSTEM TIME (SEC)    =   0.0000    
       ELAPSED TOTAL CPU TIME (SEC) =   0.0000    
       ELAPSED WALLCLOCK TIME (SEC) =            0

               CONVERGENCE CHECKS FOR EQUILIBRIUM ITERATION     1


 AVERAGE FORCE                      0.394       TIME AVG. FORCE       0.112    
 LARGEST SCALED RESIDUAL FORCE      2.587E-13   AT NODE          2   DOF  1
  CORRESPONDING RESIDUAL FORCE      2.587E-13
 LARGEST INCREMENT OF DISP.         2.563E-05   AT NODE          1   DOF  2
 LARGEST CORRECTION TO DISP.        2.132E-09   AT NODE          4   DOF  1
          THE FORCE     EQUILIBRIUM RESPONSE WAS LINEAR IN THIS INCREMENT
          TIME INCREMENT MAY NOW INCREASE TO    3.844E-04

 ITERATION SUMMARY FOR THE INCREMENT:   1 TOTAL ITERATIONS, OF WHICH
   0 ARE SEVERE DISCONTINUITY ITERATIONS AND  1 ARE EQUILIBRIUM ITERATIONS.

 TIME INCREMENT COMPLETED  2.563E-04,  FRACTION OF STEP COMPLETED  7.589E-04
 STEP TIME COMPLETED       7.589E-04,  TOTAL TIME COMPLETED        7.589E-04


  INCREMENT    11 STARTS. ATTEMPT NUMBER  1, TIME INCREMENT  3.844E-04
 
	SYMMETRIC DIRECT SPARSE SOLVER RUNNING ON
 	1 HOST:        1 MPI RANK  x 1 THREAD
 	NUMBER OF EQUATIONS:     18
 	NUMBER OF RHS:           1
 	NUMBER OF FLOPS:         2.109e+03

     CHECK POINT  START OF SOLVER     

     CHECK POINT  END OF SOLVER       

       ELAPSED USER TIME (SEC)      =   0.0000    
       ELAPSED SYSTEM TIME (SEC)    =   0.0000    
       ELAPSED TOTAL CPU TIME (SEC) =   0.0000    
       ELAPSED WALLCLOCK TIME (SEC) =            0

               CONVERGENCE CHECKS FOR EQUILIBRIUM ITERATION     1


 AVERAGE FORCE                      0.593       TIME AVG. FORCE       0.156    
 LARGEST SCALED RESIDUAL FORCE      1.309E-12   AT NODE          1   DOF  1
  CORRESPONDING RESIDUAL FORCE      1.309E-12
 LARGEST INCREMENT OF DISP.         3.844E-05   AT NODE          1   DOF  2
 LARGEST CORRECTION TO DISP.        4.794E-09   AT NODE          2   DOF  1
          THE FORCE     EQUILIBRIUM RESPONSE WAS LINEAR IN THIS INCREMENT
          TIME INCREMENT MAY NOW INCREASE TO    5.767E-04

 ITERATION SUMMARY FOR THE INCREMENT:   1 TOTAL ITERATIONS, OF WHICH
   0 ARE SEVERE DISCONTINUITY ITERATIONS AND  1 ARE EQUILIBRIUM ITERATIONS.

 TIME INCREMENT COMPLETED  3.844E-04,  FRACTION OF STEP COMPLETED  1.143E-03
 STEP TIME COMPLETED       1.143E-03,  TOTAL TIME COMPLETED        1.143E-03


  INCREMENT    12 STARTS. ATTEMPT NUMBER  1, TIME INCREMENT  5.767E-04
 
	SYMMETRIC DIRECT SPARSE SOLVER RUNNING ON
 	1 HOST:        1 MPI RANK  x 1 THREAD
 	NUMBER OF EQUATIONS:     18
 	NUMBER OF RHS:           1
 	NUMBER OF FLOPS:         2.109e+03

     CHECK POINT  START OF SOLVER     

     CHECK POINT  END OF SOLVER       

       ELAPSED USER TIME (SEC)      =   0.0000    
       ELAPSED SYSTEM TIME (SEC)    =   0.0000    
       ELAPSED TOTAL CPU TIME (SEC) =   0.0000    
       ELAPSED WALLCLOCK TIME (SEC) =            0

               CONVERGENCE CHECKS FOR EQUILIBRIUM ITERATION     1


 AVERAGE FORCE                      0.892       TIME AVG. FORCE       0.217    
 LARGEST SCALED RESIDUAL FORCE      6.619E-12   AT NODE          6   DOF  3
  CORRESPONDING RESIDUAL FORCE      6.619E-12
 LARGEST INCREMENT OF DISP.         5.767E-05   AT NODE          1   DOF  2
 LARGEST CORRECTION TO DISP.        1.078E-08   AT NODE          1   DOF  1
          THE FORCE     EQUILIBRIUM RESPONSE WAS LINEAR IN THIS INCREMENT
          TIME INCREMENT MAY NOW INCREASE TO    8.650E-04

 ITERATION SUMMARY FOR THE INCREMENT:   1 TOTAL ITERATIONS, OF WHICH
   0 ARE SEVERE DISCONTINUITY ITERATIONS AND  1 ARE EQUILIBRIUM ITERATIONS.

 TIME INCREMENT COMPLETED  5.767E-04,  FRACTION OF STEP COMPLETED  1.720E-03
 STEP TIME COMPLETED       1.720E-03,  TOTAL TIME COMPLETED        1.720E-03


  INCREMENT    13 STARTS. ATTEMPT NUMBER  1, TIME INCREMENT  8.650E-04
 
	SYMMETRIC DIRECT SPARSE SOLVER RUNNING ON
 	1 HOST:        1 MPI RANK  x 1 THREAD
 	NUMBER OF EQUATIONS:     18
 	NUMBER OF RHS:           1
 	NUMBER OF FLOPS:         2.109e+03

     CHECK POINT  START OF SOLVER     

     CHECK POINT  END OF SOLVER       

       ELAPSED USER TIME (SEC)      =   0.0000    
       ELAPSED SYSTEM TIME (SEC)    =   0.0000    
       ELAPSED TOTAL CPU TIME (SEC) =   0.0000    
       ELAPSED WALLCLOCK TIME (SEC) =            0

               CONVERGENCE CHECKS FOR EQUILIBRIUM ITERATION     1


 AVERAGE FORCE                      0.405       TIME AVG. FORCE       0.232    
 LARGEST SCALED RESIDUAL FORCE      8.880E-03   AT NODE          4   DOF  1
  CORRESPONDING RESIDUAL FORCE      8.880E-03
 LARGEST INCREMENT OF DISP.         8.650E-05   AT NODE          1   DOF  2
 LARGEST CORRECTION TO DISP.       -7.397E-06   AT NODE          5   DOF  3
          FORCE     EQUILIBRIUM NOT ACHIEVED WITHIN TOLERANCE.
 
	SYMMETRIC DIRECT SPARSE SOLVER RUNNING ON
 	1 HOST:        1 MPI RANK  x 1 THREAD
 	NUMBER OF EQUATIONS:     18
 	NUMBER OF RHS:           1
 	NUMBER OF FLOPS:         2.109e+03

     CHECK POINT  START OF SOLVER     

     CHECK POINT  END OF SOLVER       

       ELAPSED USER TIME (SEC)      =   0.0000    
       ELAPSED SYSTEM TIME (SEC)    =   0.0000    
       ELAPSED TOTAL CPU TIME (SEC) =   0.0000    
       ELAPSED WALLCLOCK TIME (SEC) =            0

               CONVERGENCE CHECKS FOR EQUILIBRIUM ITERATION     2


 AVERAGE FORCE                      0.404       TIME AVG. FORCE       0.232    
 LARGEST SCALED RESIDUAL FORCE     -1.820E-03   AT NODE          2   DOF  1
  CORRESPONDING RESIDUAL FORCE     -1.820E-03
 LARGEST INCREMENT OF DISP.         8.650E-05   AT NODE          1   DOF  2
 LARGEST CORRECTION TO DISP.        1.827E-06   AT NODE          4   DOF  1
          FORCE     EQUILIBRIUM NOT ACHIEVED WITHIN TOLERANCE.
 
	SYMMETRIC DIRECT SPARSE SOLVER RUNNING ON
 	1 HOST:        1 MPI RANK  x 1 THREAD
 	NUMBER OF EQUATIONS:     18
 	NUMBER OF RHS:           1
 	NUMBER OF FLOPS:         2.109e+03

     CHECK POINT  START OF SOLVER     

     CHECK POINT  END OF SOLVER       

       ELAPSED USER TIME (SEC)      =   0.0000    
       ELAPSED SYSTEM TIME (SEC)    =   0.0000    
       ELAPSED TOTAL CPU TIME (SEC) =   0.0000    
       ELAPSED WALLCLOCK TIME (SEC) =            0

               CONVERGENCE CHECKS FOR EQUILIBRIUM ITERATION     3


 AVERAGE FORCE                      0.403       TIME AVG. FORCE       0.231    
 LARGEST SCALED RESIDUAL FORCE      4.169E-04   AT NODE          2   DOF  1
  CORRESPONDING RESIDUAL FORCE      4.169E-04
 LARGEST INCREMENT OF DISP.         8.650E-05   AT NODE          1   DOF  2
 LARGEST CORRECTION TO DISP.       -4.382E-07   AT NODE          2   DOF  1
          THE FORCE     EQUILIBRIUM EQUATIONS HAVE CONVERGED
          TIME INCREMENT MAY NOW INCREASE TO    1.297E-03

 ITERATION SUMMARY FOR THE INCREMENT:   3 TOTAL ITERATIONS, OF WHICH
   0 ARE SEVERE DISCONTINUITY ITERATIONS AND  3 ARE EQUILIBRIUM ITERATIONS.

 TIME INCREMENT COMPLETED  8.650E-04,  FRACTION OF STEP COMPLETED  2.585E-03
 STEP TIME COMPLETED       2.585E-03,  TOTAL TIME COMPLETED        2.585E-03


  INCREMENT    14 STARTS. ATTEMPT NUMBER  1, TIME INCREMENT  1.297E-03
 
	SYMMETRIC DIRECT SPARSE SOLVER RUNNING ON
 	1 HOST:        1 MPI RANK  x 1 THREAD
 	NUMBER OF EQUATIONS:     18
 	NUMBER OF RHS:           1
 	NUMBER OF FLOPS:         2.109e+03

     CHECK POINT  START OF SOLVER     

     CHECK POINT  END OF SOLVER       

       ELAPSED USER TIME (SEC)      =   0.0000    
       ELAPSED SYSTEM TIME (SEC)    =   0.0000    
       ELAPSED TOTAL CPU TIME (SEC) =   0.0000    
       ELAPSED WALLCLOCK TIME (SEC) =            0

               CONVERGENCE CHECKS FOR EQUILIBRIUM ITERATION     1


 AVERAGE FORCE                      0.452       TIME AVG. FORCE       0.247    
 LARGEST SCALED RESIDUAL FORCE      9.926E-02   AT NODE          4   DOF  1
  CORRESPONDING RESIDUAL FORCE      9.926E-02
 LARGEST INCREMENT OF DISP.         1.297E-04   AT NODE          1   DOF  2
 LARGEST CORRECTION TO DISP.       -4.029E-05   AT NODE          5   DOF  3
          FORCE     EQUILIBRIUM NOT ACHIEVED WITHIN TOLERANCE.
 
	SYMMETRIC DIRECT SPARSE SOLVER RUNNING ON
 	1 HOST:        1 MPI RANK  x 1 THREAD
 	NUMBER OF EQUATIONS:     18
 	NUMBER OF RHS:           1
 	NUMBER OF FLOPS:         2.109e+03

     CHECK POINT  START OF SOLVER     

     CHECK POINT  END OF SOLVER       

       ELAPSED USER TIME (SEC)      =   0.0000    
       ELAPSED SYSTEM TIME (SEC)    =   0.0000    
       ELAPSED TOTAL CPU TIME (SEC) =   0.0000    
       ELAPSED WALLCLOCK TIME (SEC) =            0

               CONVERGENCE CHECKS FOR EQUILIBRIUM ITERATION     2


 AVERAGE FORCE                      0.476       TIME AVG. FORCE       0.249    
 LARGEST SCALED RESIDUAL FORCE     -7.443E-02   AT NODE          2   DOF  1
  CORRESPONDING RESIDUAL FORCE     -7.443E-02
 LARGEST INCREMENT OF DISP.         1.297E-04   AT NODE          1   DOF  2
 LARGEST CORRECTION TO DISP.        4.403E-05   AT NODE          4   DOF  1
          FORCE     EQUILIBRIUM NOT ACHIEVED WITHIN TOLERANCE.
 
	SYMMETRIC DIRECT SPARSE SOLVER RUNNING ON
 	1 HOST:        1 MPI RANK  x 1 THREAD
 	NUMBER OF EQUATIONS:     18
 	NUMBER OF RHS:           1
 	NUMBER OF FLOPS:         2.109e+03

     CHECK POINT  START OF SOLVER     

     CHECK POINT  END OF SOLVER       

       ELAPSED USER TIME (SEC)      =   0.0000    
       ELAPSED SYSTEM TIME (SEC)    =   0.0000    
       ELAPSED TOTAL CPU TIME (SEC) =   0.0000    
       ELAPSED WALLCLOCK TIME (SEC) =            0

               CONVERGENCE CHECKS FOR EQUILIBRIUM ITERATION     3


 AVERAGE FORCE                      0.441       TIME AVG. FORCE       0.246    
 LARGEST SCALED RESIDUAL FORCE      5.637E-02   AT NODE          2   DOF  1
  CORRESPONDING RESIDUAL FORCE      5.637E-02
 LARGEST INCREMENT OF DISP.         1.297E-04   AT NODE          1   DOF  2
 LARGEST CORRECTION TO DISP.       -3.975E-05   AT NODE          2   DOF  1
          FORCE     EQUILIBRIUM NOT ACHIEVED WITHIN TOLERANCE.
 
	SYMMETRIC DIRECT SPARSE SOLVER RUNNING ON
 	1 HOST:        1 MPI RANK  x 1 THREAD
 	NUMBER OF EQUATIONS:     18
 	NUMBER OF RHS:           1
 	NUMBER OF FLOPS:         2.109e+03

     CHECK POINT  START OF SOLVER     

     CHECK POINT  END OF SOLVER       

       ELAPSED USER TIME (SEC)      =   0.0000    
       ELAPSED SYSTEM TIME (SEC)    =   0.0000    
       ELAPSED TOTAL CPU TIME (SEC) =   0.0000    
       ELAPSED WALLCLOCK TIME (SEC) =            0

               CONVERGENCE CHECKS FOR EQUILIBRIUM ITERATION     4


 AVERAGE FORCE                      0.454       TIME AVG. FORCE       0.247    
 LARGEST SCALED RESIDUAL FORCE     -4.271E-02   AT NODE          2   DOF  1
  CORRESPONDING RESIDUAL FORCE     -4.271E-02
 LARGEST INCREMENT OF DISP.         1.297E-04   AT NODE          1   DOF  2
 LARGEST CORRECTION TO DISP.        3.107E-05   AT NODE          2   DOF  1
          FORCE     EQUILIBRIUM NOT ACHIEVED WITHIN TOLERANCE.
 
	SYMMETRIC DIRECT SPARSE SOLVER RUNNING ON
 	1 HOST:        1 MPI RANK  x 1 THREAD
 	NUMBER OF EQUATIONS:     18
 	NUMBER OF RHS:           1
 	NUMBER OF FLOPS:         2.109e+03

     CHECK POINT  START OF SOLVER     

     CHECK POINT  END OF SOLVER       

       ELAPSED USER TIME (SEC)      =   0.0000    
       ELAPSED SYSTEM TIME (SEC)    =   0.0000    
       ELAPSED TOTAL CPU TIME (SEC) =   0.0000    
       ELAPSED WALLCLOCK TIME (SEC) =            0

               CONVERGENCE CHECKS FOR EQUILIBRIUM ITERATION     5


 AVERAGE FORCE                      0.436       TIME AVG. FORCE       0.246    
 LARGEST SCALED RESIDUAL FORCE      3.154E-02   AT NODE          2   DOF  1
  CORRESPONDING RESIDUAL FORCE      3.154E-02
 LARGEST INCREMENT OF DISP.         1.297E-04   AT NODE          1   DOF  2
 LARGEST CORRECTION TO DISP.       -2.348E-05   AT NODE          2   DOF  1
          FORCE     EQUILIBRIUM NOT ACHIEVED WITHIN TOLERANCE.
 
	SYMMETRIC DIRECT SPARSE SOLVER RUNNING ON
 	1 HOST:        1 MPI RANK  x 1 THREAD
 	NUMBER OF EQUATIONS:     18
 	NUMBER OF RHS:           1
 	NUMBER OF FLOPS:         2.109e+03

     CHECK POINT  START OF SOLVER     

     CHECK POINT  END OF SOLVER       

       ELAPSED USER TIME (SEC)      =   0.0000    
       ELAPSED SYSTEM TIME (SEC)    =   0.0000    
       ELAPSED TOTAL CPU TIME (SEC) =   0.0000    
       ELAPSED WALLCLOCK TIME (SEC) =            0

               CONVERGENCE CHECKS FOR EQUILIBRIUM ITERATION     6


 AVERAGE FORCE                      0.443       TIME AVG. FORCE       0.247    
 LARGEST SCALED RESIDUAL FORCE     -2.357E-02   AT NODE          2   DOF  1
  CORRESPONDING RESIDUAL FORCE     -2.357E-02
 LARGEST INCREMENT OF DISP.         1.297E-04   AT NODE          1   DOF  2
 LARGEST CORRECTION TO DISP.        1.743E-05   AT NODE          2   DOF  1
          FORCE     EQUILIBRIUM NOT ACHIEVED WITHIN TOLERANCE.
 
	SYMMETRIC DIRECT SPARSE SOLVER RUNNING ON
 	1 HOST:        1 MPI RANK  x 1 THREAD
 	NUMBER OF EQUATIONS:     18
 	NUMBER OF RHS:           1
 	NUMBER OF FLOPS:         2.109e+03

     CHECK POINT  START OF SOLVER     

     CHECK POINT  END OF SOLVER       

       ELAPSED USER TIME (SEC)      =   0.0000    
       ELAPSED SYSTEM TIME (SEC)    =   0.0000    
       ELAPSED TOTAL CPU TIME (SEC) =   0.0000    
       ELAPSED WALLCLOCK TIME (SEC) =            0

               CONVERGENCE CHECKS FOR EQUILIBRIUM ITERATION     7


 AVERAGE FORCE                      0.432       TIME AVG. FORCE       0.246    
 LARGEST SCALED RESIDUAL FORCE      1.743E-02   AT NODE          2   DOF  1
  CORRESPONDING RESIDUAL FORCE      1.743E-02
 LARGEST INCREMENT OF DISP.         1.297E-04   AT NODE          1   DOF  2
 LARGEST CORRECTION TO DISP.       -1.298E-05   AT NODE          2   DOF  1
          FORCE     EQUILIBRIUM NOT ACHIEVED WITHIN TOLERANCE.
 
	SYMMETRIC DIRECT SPARSE SOLVER RUNNING ON
 	1 HOST:        1 MPI RANK  x 1 THREAD
 	NUMBER OF EQUATIONS:     18
 	NUMBER OF RHS:           1
 	NUMBER OF FLOPS:         2.109e+03

     CHECK POINT  START OF SOLVER     

     CHECK POINT  END OF SOLVER       

       ELAPSED USER TIME (SEC)      =   0.0000    
       ELAPSED SYSTEM TIME (SEC)    =   0.0000    
       ELAPSED TOTAL CPU TIME (SEC) =   0.0000    
       ELAPSED WALLCLOCK TIME (SEC) =            0

               CONVERGENCE CHECKS FOR EQUILIBRIUM ITERATION     8


 AVERAGE FORCE                      0.436       TIME AVG. FORCE       0.246    
 LARGEST SCALED RESIDUAL FORCE     -1.299E-02   AT NODE          2   DOF  1
  CORRESPONDING RESIDUAL FORCE     -1.299E-02
 LARGEST INCREMENT OF DISP.         1.297E-04   AT NODE          1   DOF  2
 LARGEST CORRECTION TO DISP.        9.626E-06   AT NODE          2   DOF  1
          FORCE     EQUILIBRIUM NOT ACHIEVED WITHIN TOLERANCE.
 
	SYMMETRIC DIRECT SPARSE SOLVER RUNNING ON
 	1 HOST:        1 MPI RANK  x 1 THREAD
 	NUMBER OF EQUATIONS:     18
 	NUMBER OF RHS:           1
 	NUMBER OF FLOPS:         2.109e+03

     CHECK POINT  START OF SOLVER     

     CHECK POINT  END OF SOLVER       

       ELAPSED USER TIME (SEC)      =   0.0000    
       ELAPSED SYSTEM TIME (SEC)    =   0.0000    
       ELAPSED TOTAL CPU TIME (SEC) =   0.0000    
       ELAPSED WALLCLOCK TIME (SEC) =            0

               CONVERGENCE CHECKS FOR EQUILIBRIUM ITERATION     9


 AVERAGE FORCE                      0.431       TIME AVG. FORCE       0.246    
 LARGEST SCALED RESIDUAL FORCE      9.620E-03   AT NODE          2   DOF  1
  CORRESPONDING RESIDUAL FORCE      9.620E-03
 LARGEST INCREMENT OF DISP.         1.297E-04   AT NODE          1   DOF  2
 LARGEST CORRECTION TO DISP.       -7.157E-06   AT NODE          2   DOF  1
          FORCE     EQUILIBRIUM NOT ACHIEVED WITHIN TOLERANCE.
 
	SYMMETRIC DIRECT SPARSE SOLVER RUNNING ON
 	1 HOST:        1 MPI RANK  x 1 THREAD
 	NUMBER OF EQUATIONS:     18
 	NUMBER OF RHS:           1
 	NUMBER OF FLOPS:         2.109e+03

     CHECK POINT  START OF SOLVER     

     CHECK POINT  END OF SOLVER       

       ELAPSED USER TIME (SEC)      =   0.0000    
       ELAPSED SYSTEM TIME (SEC)    =   0.0000    
       ELAPSED TOTAL CPU TIME (SEC) =   0.0000    
       ELAPSED WALLCLOCK TIME (SEC) =            0

               CONVERGENCE CHECKS FOR EQUILIBRIUM ITERATION    10


 AVERAGE FORCE                      0.433       TIME AVG. FORCE       0.246    
 LARGEST SCALED RESIDUAL FORCE     -7.155E-03   AT NODE          2   DOF  1
  CORRESPONDING RESIDUAL FORCE     -7.155E-03
 LARGEST INCREMENT OF DISP.         1.297E-04   AT NODE          1   DOF  2
 LARGEST CORRECTION TO DISP.        5.309E-06   AT NODE          2   DOF  1
          FORCE     EQUILIBRIUM NOT ACHIEVED WITHIN TOLERANCE.
 
	SYMMETRIC DIRECT SPARSE SOLVER RUNNING ON
 	1 HOST:        1 MPI RANK  x 1 THREAD
 	NUMBER OF EQUATIONS:     18
 	NUMBER OF RHS:           1
 	NUMBER OF FLOPS:         2.109e+03

     CHECK POINT  START OF SOLVER     

     CHECK POINT  END OF SOLVER       

       ELAPSED USER TIME (SEC)      =   0.0000    
       ELAPSED SYSTEM TIME (SEC)    =   0.0000    
       ELAPSED TOTAL CPU TIME (SEC) =   0.0000    
       ELAPSED WALLCLOCK TIME (SEC) =            0

               CONVERGENCE CHECKS FOR EQUILIBRIUM ITERATION    11


 AVERAGE FORCE                      0.430       TIME AVG. FORCE       0.246    
 LARGEST SCALED RESIDUAL FORCE      5.306E-03   AT NODE          2   DOF  1
  CORRESPONDING RESIDUAL FORCE      5.306E-03
 LARGEST INCREMENT OF DISP.         1.297E-04   AT NODE          1   DOF  2
 LARGEST CORRECTION TO DISP.       -3.945E-06   AT NODE          2   DOF  1
          FORCE     EQUILIBRIUM NOT ACHIEVED WITHIN TOLERANCE.
 
	SYMMETRIC DIRECT SPARSE SOLVER RUNNING ON
 	1 HOST:        1 MPI RANK  x 1 THREAD
 	NUMBER OF EQUATIONS:     18
 	NUMBER OF RHS:           1
 	NUMBER OF FLOPS:         2.109e+03

     CHECK POINT  START OF SOLVER     

     CHECK POINT  END OF SOLVER       

       ELAPSED USER TIME (SEC)      =   0.0000    
       ELAPSED SYSTEM TIME (SEC)    =   0.0000    
       ELAPSED TOTAL CPU TIME (SEC) =   0.0000    
       ELAPSED WALLCLOCK TIME (SEC) =            0

               CONVERGENCE CHECKS FOR EQUILIBRIUM ITERATION    12


 AVERAGE FORCE                      0.431       TIME AVG. FORCE       0.246    
 LARGEST SCALED RESIDUAL FORCE     -3.943E-03   AT NODE          2   DOF  1
  CORRESPONDING RESIDUAL FORCE     -3.943E-03
 LARGEST INCREMENT OF DISP.         1.297E-04   AT NODE          1   DOF  2
 LARGEST CORRECTION TO DISP.        2.927E-06   AT NODE          2   DOF  1
          DISP.    CORRECTION TOO LARGE COMPARED TO DISP.    INCREMENT
 
	SYMMETRIC DIRECT SPARSE SOLVER RUNNING ON
 	1 HOST:        1 MPI RANK  x 1 THREAD
 	NUMBER OF EQUATIONS:     18
 	NUMBER OF RHS:           1
 	NUMBER OF FLOPS:         2.109e+03

     CHECK POINT  START OF SOLVER     

     CHECK POINT  END OF SOLVER       

       ELAPSED USER TIME (SEC)      =   0.0000    
       ELAPSED SYSTEM TIME (SEC)    =   0.0000    
       ELAPSED TOTAL CPU TIME (SEC) =   0.0000    
       ELAPSED WALLCLOCK TIME (SEC) =            0

               CONVERGENCE CHECKS FOR EQUILIBRIUM ITERATION    13


 AVERAGE FORCE                      0.429       TIME AVG. FORCE       0.246    
 LARGEST SCALED RESIDUAL FORCE      2.925E-03   AT NODE          2   DOF  1
  CORRESPONDING RESIDUAL FORCE      2.925E-03
 LARGEST INCREMENT OF DISP.         1.297E-04   AT NODE          1   DOF  2
 LARGEST CORRECTION TO DISP.       -2.174E-06   AT NODE          2   DOF  1
          DISP.    CORRECTION TOO LARGE COMPARED TO DISP.    INCREMENT
 
	SYMMETRIC DIRECT SPARSE SOLVER RUNNING ON
 	1 HOST:        1 MPI RANK  x 1 THREAD
 	NUMBER OF EQUATIONS:     18
 	NUMBER OF RHS:           1
 	NUMBER OF FLOPS:         2.109e+03

     CHECK POINT  START OF SOLVER     

     CHECK POINT  END OF SOLVER       

       ELAPSED USER TIME (SEC)      =   0.0000    
       ELAPSED SYSTEM TIME (SEC)    =   0.0000    
       ELAPSED TOTAL CPU TIME (SEC) =   0.0000    
       ELAPSED WALLCLOCK TIME (SEC) =            0

               CONVERGENCE CHECKS FOR EQUILIBRIUM ITERATION    14


 AVERAGE FORCE                      0.430       TIME AVG. FORCE       0.246    
 LARGEST SCALED RESIDUAL FORCE     -2.172E-03   AT NODE          2   DOF  1
  CORRESPONDING RESIDUAL FORCE     -2.172E-03
 LARGEST INCREMENT OF DISP.         1.297E-04   AT NODE          1   DOF  2
 LARGEST CORRECTION TO DISP.        1.614E-06   AT NODE          2   DOF  1
          DISP.    CORRECTION TOO LARGE COMPARED TO DISP.    INCREMENT
 
	SYMMETRIC DIRECT SPARSE SOLVER RUNNING ON
 	1 HOST:        1 MPI RANK  x 1 THREAD
 	NUMBER OF EQUATIONS:     18
 	NUMBER OF RHS:           1
 	NUMBER OF FLOPS:         2.109e+03

     CHECK POINT  START OF SOLVER     

     CHECK POINT  END OF SOLVER       

       ELAPSED USER TIME (SEC)      =   0.0000    
       ELAPSED SYSTEM TIME (SEC)    =   0.0000    
       ELAPSED TOTAL CPU TIME (SEC) =   0.0000    
       ELAPSED WALLCLOCK TIME (SEC) =            0

               CONVERGENCE CHECKS FOR EQUILIBRIUM ITERATION    15


 AVERAGE FORCE                      0.429       TIME AVG. FORCE       0.246    
 LARGEST SCALED RESIDUAL FORCE      1.611E-03   AT NODE          2   DOF  1
  CORRESPONDING RESIDUAL FORCE      1.611E-03
 LARGEST INCREMENT OF DISP.         1.297E-04   AT NODE          1   DOF  2
 LARGEST CORRECTION TO DISP.       -1.198E-06   AT NODE          2   DOF  1
          THE FORCE     EQUILIBRIUM EQUATIONS HAVE CONVERGED BASED ON ALTERNATIVE
          RESIDUAL CRITERION
 

 ***WARNING: FORCE EQUILIBRIUM ACCEPTED USING THE ALTERNATE TOLERANCE.

          BECAUSE TOO MANY EQUILIBRIUM ITERATIONS HAVE BEEN USED
          THE NEXT TIME INCREMENT WILL BE REDUCED TO    9.731E-04

 ITERATION SUMMARY FOR THE INCREMENT:  15 TOTAL ITERATIONS, OF WHICH
   0 ARE SEVERE DISCONTINUITY ITERATIONS AND 15 ARE EQUILIBRIUM ITERATIONS.

 TIME INCREMENT COMPLETED  1.297E-03,  FRACTION OF STEP COMPLETED  3.882E-03
 STEP TIME COMPLETED       3.882E-03,  TOTAL TIME COMPLETED        3.882E-03


  INCREMENT    15 STARTS. ATTEMPT NUMBER  1, TIME INCREMENT  9.731E-04
 
	SYMMETRIC DIRECT SPARSE SOLVER RUNNING ON
 	1 HOST:        1 MPI RANK  x 1 THREAD
 	NUMBER OF EQUATIONS:     18
 	NUMBER OF RHS:           1
 	NUMBER OF FLOPS:         2.109e+03

     CHECK POINT  START OF SOLVER     

     CHECK POINT  END OF SOLVER       

       ELAPSED USER TIME (SEC)      =   0.0000    
       ELAPSED SYSTEM TIME (SEC)    =   0.0000    
       ELAPSED TOTAL CPU TIME (SEC) =   0.0000    
       ELAPSED WALLCLOCK TIME (SEC) =            0

               CONVERGENCE CHECKS FOR EQUILIBRIUM ITERATION     1


 AVERAGE FORCE                      0.445       TIME AVG. FORCE       0.259    
 LARGEST SCALED RESIDUAL FORCE      1.113E-03   AT NODE          5   DOF  3
  CORRESPONDING RESIDUAL FORCE      1.113E-03
 LARGEST INCREMENT OF DISP.         9.731E-05   AT NODE          1   DOF  2
 LARGEST CORRECTION TO DISP.       -8.464E-07   AT NODE          6   DOF  3
          THE FORCE     EQUILIBRIUM EQUATIONS HAVE CONVERGED

 ITERATION SUMMARY FOR THE INCREMENT:   1 TOTAL ITERATIONS, OF WHICH
   0 ARE SEVERE DISCONTINUITY ITERATIONS AND  1 ARE EQUILIBRIUM ITERATIONS.

 TIME INCREMENT COMPLETED  9.731E-04,  FRACTION OF STEP COMPLETED  4.855E-03
 STEP TIME COMPLETED       4.855E-03,  TOTAL TIME COMPLETED        4.855E-03


  INCREMENT    16 STARTS. ATTEMPT NUMBER  1, TIME INCREMENT  9.731E-04
 
	SYMMETRIC DIRECT SPARSE SOLVER RUNNING ON
 	1 HOST:        1 MPI RANK  x 1 THREAD
 	NUMBER OF EQUATIONS:     18
 	NUMBER OF RHS:           1
 	NUMBER OF FLOPS:         2.109e+03

     CHECK POINT  START OF SOLVER     

     CHECK POINT  END OF SOLVER       

       ELAPSED USER TIME (SEC)      =   0.0000    
       ELAPSED SYSTEM TIME (SEC)    =   0.0000    
       ELAPSED TOTAL CPU TIME (SEC) =   0.0000    
       ELAPSED WALLCLOCK TIME (SEC) =            0

               CONVERGENCE CHECKS FOR EQUILIBRIUM ITERATION     1


 AVERAGE FORCE                      0.458       TIME AVG. FORCE       0.271    
 LARGEST SCALED RESIDUAL FORCE      9.020E-04   AT NODE          4   DOF  1
  CORRESPONDING RESIDUAL FORCE      9.020E-04
 LARGEST INCREMENT OF DISP.         9.731E-05   AT NODE          1   DOF  2
 LARGEST CORRECTION TO DISP.       -6.364E-07   AT NODE          2   DOF  1
          THE FORCE     EQUILIBRIUM EQUATIONS HAVE CONVERGED
          TIME INCREMENT MAY NOW INCREASE TO    1.460E-03

 ITERATION SUMMARY FOR THE INCREMENT:   1 TOTAL ITERATIONS, OF WHICH
   0 ARE SEVERE DISCONTINUITY ITERATIONS AND  1 ARE EQUILIBRIUM ITERATIONS.

 TIME INCREMENT COMPLETED  9.731E-04,  FRACTION OF STEP COMPLETED  5.829E-03
 STEP TIME COMPLETED       5.829E-03,  TOTAL TIME COMPLETED        5.829E-03


  INCREMENT    17 STARTS. ATTEMPT NUMBER  1, TIME INCREMENT  1.460E-03
 
	SYMMETRIC DIRECT SPARSE SOLVER RUNNING ON
 	1 HOST:        1 MPI RANK  x 1 THREAD
 	NUMBER OF EQUATIONS:     18
 	NUMBER OF RHS:           1
 	NUMBER OF FLOPS:         2.109e+03

     CHECK POINT  START OF SOLVER     

     CHECK POINT  END OF SOLVER       

       ELAPSED USER TIME (SEC)      =   0.0000    
       ELAPSED SYSTEM TIME (SEC)    =   0.0000    
       ELAPSED TOTAL CPU TIME (SEC) =   0.0000    
       ELAPSED WALLCLOCK TIME (SEC) =            0

               CONVERGENCE CHECKS FOR EQUILIBRIUM ITERATION     1


 AVERAGE FORCE                      0.474       TIME AVG. FORCE       0.283    
 LARGEST SCALED RESIDUAL FORCE      1.099E-03   AT NODE          4   DOF  1
  CORRESPONDING RESIDUAL FORCE      1.099E-03
 LARGEST INCREMENT OF DISP.         1.460E-04   AT NODE          1   DOF  2
 LARGEST CORRECTION TO DISP.       -5.300E-07   AT NODE          5   DOF  3
          THE FORCE     EQUILIBRIUM EQUATIONS HAVE CONVERGED
          TIME INCREMENT MAY NOW INCREASE TO    2.189E-03

 ITERATION SUMMARY FOR THE INCREMENT:   1 TOTAL ITERATIONS, OF WHICH
   0 ARE SEVERE DISCONTINUITY ITERATIONS AND  1 ARE EQUILIBRIUM ITERATIONS.

 TIME INCREMENT COMPLETED  1.460E-03,  FRACTION OF STEP COMPLETED  7.288E-03
 STEP TIME COMPLETED       7.288E-03,  TOTAL TIME COMPLETED        7.288E-03


  INCREMENT    18 STARTS. ATTEMPT NUMBER  1, TIME INCREMENT  2.189E-03
 
	SYMMETRIC DIRECT SPARSE SOLVER RUNNING ON
 	1 HOST:        1 MPI RANK  x 1 THREAD
 	NUMBER OF EQUATIONS:     18
 	NUMBER OF RHS:           1
 	NUMBER OF FLOPS:         2.109e+03

     CHECK POINT  START OF SOLVER     

     CHECK POINT  END OF SOLVER       

       ELAPSED USER TIME (SEC)      =   0.0000    
       ELAPSED SYSTEM TIME (SEC)    =   0.0000    
       ELAPSED TOTAL CPU TIME (SEC) =   0.0000    
       ELAPSED WALLCLOCK TIME (SEC) =            0

               CONVERGENCE CHECKS FOR EQUILIBRIUM ITERATION     1


 AVERAGE FORCE                      0.495       TIME AVG. FORCE       0.295    
 LARGEST SCALED RESIDUAL FORCE      1.364E-03   AT NODE          4   DOF  1
  CORRESPONDING RESIDUAL FORCE      1.364E-03
 LARGEST INCREMENT OF DISP.         2.189E-04   AT NODE          1   DOF  2
 LARGEST CORRECTION TO DISP.       -3.951E-07   AT NODE          1   DOF  3
          THE FORCE     EQUILIBRIUM EQUATIONS HAVE CONVERGED
          TIME INCREMENT MAY NOW INCREASE TO    3.284E-03

 ITERATION SUMMARY FOR THE INCREMENT:   1 TOTAL ITERATIONS, OF WHICH
   0 ARE SEVERE DISCONTINUITY ITERATIONS AND  1 ARE EQUILIBRIUM ITERATIONS.

 TIME INCREMENT COMPLETED  2.189E-03,  FRACTION OF STEP COMPLETED  9.478E-03
 STEP TIME COMPLETED       9.478E-03,  TOTAL TIME COMPLETED        9.478E-03


  INCREMENT    19 STARTS. ATTEMPT NUMBER  1, TIME INCREMENT  3.284E-03
 
	SYMMETRIC DIRECT SPARSE SOLVER RUNNING ON
 	1 HOST:        1 MPI RANK  x 1 THREAD
 	NUMBER OF EQUATIONS:     18
 	NUMBER OF RHS:           1
 	NUMBER OF FLOPS:         2.109e+03

     CHECK POINT  START OF SOLVER     

     CHECK POINT  END OF SOLVER       

       ELAPSED USER TIME (SEC)      =   0.0000    
       ELAPSED SYSTEM TIME (SEC)    =   0.0000    
       ELAPSED TOTAL CPU TIME (SEC) =   0.0000    
       ELAPSED WALLCLOCK TIME (SEC) =            0

               CONVERGENCE CHECKS FOR EQUILIBRIUM ITERATION     1


 AVERAGE FORCE                      0.518       TIME AVG. FORCE       0.307    
 LARGEST SCALED RESIDUAL FORCE     -9.230E-04   AT NODE          2   DOF  1
  CORRESPONDING RESIDUAL FORCE     -9.230E-04
 LARGEST INCREMENT OF DISP.         3.284E-04   AT NODE          1   DOF  2
 LARGEST CORRECTION TO DISP.        7.307E-07   AT NODE          4   DOF  1
          THE FORCE     EQUILIBRIUM EQUATIONS HAVE CONVERGED
          TIME INCREMENT MAY NOW INCREASE TO    4.926E-03

 ITERATION SUMMARY FOR THE INCREMENT:   1 TOTAL ITERATIONS, OF WHICH
   0 ARE SEVERE DISCONTINUITY ITERATIONS AND  1 ARE EQUILIBRIUM ITERATIONS.

 TIME INCREMENT COMPLETED  3.284E-03,  FRACTION OF STEP COMPLETED  1.276E-02
 STEP TIME COMPLETED       1.276E-02,  TOTAL TIME COMPLETED        1.276E-02


  INCREMENT    20 STARTS. ATTEMPT NUMBER  1, TIME INCREMENT  4.926E-03
 
	SYMMETRIC DIRECT SPARSE SOLVER RUNNING ON
 	1 HOST:        1 MPI RANK  x 1 THREAD
 	NUMBER OF EQUATIONS:     18
 	NUMBER OF RHS:           1
 	NUMBER OF FLOPS:         2.109e+03

     CHECK POINT  START OF SOLVER     

     CHECK POINT  END OF SOLVER       

       ELAPSED USER TIME (SEC)      =   0.0000    
       ELAPSED SYSTEM TIME (SEC)    =   0.0000    
       ELAPSED TOTAL CPU TIME (SEC) =   0.0000    
       ELAPSED WALLCLOCK TIME (SEC) =            0

               CONVERGENCE CHECKS FOR EQUILIBRIUM ITERATION     1


 AVERAGE FORCE                      0.546       TIME AVG. FORCE       0.319    
 LARGEST SCALED RESIDUAL FORCE     -2.989E-03   AT NODE          4   DOF  1
  CORRESPONDING RESIDUAL FORCE     -2.989E-03
 LARGEST INCREMENT OF DISP.         4.926E-04   AT NODE          1   DOF  2
 LARGEST CORRECTION TO DISP.        8.804E-07   AT NODE          5   DOF  3
          FORCE     EQUILIBRIUM NOT ACHIEVED WITHIN TOLERANCE.
 
	SYMMETRIC DIRECT SPARSE SOLVER RUNNING ON
 	1 HOST:        1 MPI RANK  x 1 THREAD
 	NUMBER OF EQUATIONS:     18
 	NUMBER OF RHS:           1
 	NUMBER OF FLOPS:         2.109e+03

     CHECK POINT  START OF SOLVER     

     CHECK POINT  END OF SOLVER       

       ELAPSED USER TIME (SEC)      =   0.0000    
       ELAPSED SYSTEM TIME (SEC)    =   0.0000    
       ELAPSED TOTAL CPU TIME (SEC) =   0.0000    
       ELAPSED WALLCLOCK TIME (SEC) =            0

               CONVERGENCE CHECKS FOR EQUILIBRIUM ITERATION     2


 AVERAGE FORCE                      0.545       TIME AVG. FORCE       0.319    
 LARGEST SCALED RESIDUAL FORCE      5.185E-03   AT NODE          2   DOF  1
  CORRESPONDING RESIDUAL FORCE      5.185E-03
 LARGEST INCREMENT OF DISP.         4.926E-04   AT NODE          1   DOF  2
 LARGEST CORRECTION TO DISP.       -2.806E-06   AT NODE          4   DOF  1
          FORCE     EQUILIBRIUM NOT ACHIEVED WITHIN TOLERANCE.
 
	SYMMETRIC DIRECT SPARSE SOLVER RUNNING ON
 	1 HOST:        1 MPI RANK  x 1 THREAD
 	NUMBER OF EQUATIONS:     18
 	NUMBER OF RHS:           1
 	NUMBER OF FLOPS:         2.109e+03

     CHECK POINT  START OF SOLVER     

     CHECK POINT  END OF SOLVER       

       ELAPSED USER TIME (SEC)      =   0.0000    
       ELAPSED SYSTEM TIME (SEC)    =   0.0000    
       ELAPSED TOTAL CPU TIME (SEC) =   0.0000    
       ELAPSED WALLCLOCK TIME (SEC) =            0

               CONVERGENCE CHECKS FOR EQUILIBRIUM ITERATION     3


 AVERAGE FORCE                      0.551       TIME AVG. FORCE       0.319    
 LARGEST SCALED RESIDUAL FORCE     -9.543E-03   AT NODE          2   DOF  1
  CORRESPONDING RESIDUAL FORCE     -9.543E-03
 LARGEST INCREMENT OF DISP.         4.926E-04   AT NODE          1   DOF  2
 LARGEST CORRECTION TO DISP.        5.669E-06   AT NODE          2   DOF  1
          FORCE     EQUILIBRIUM NOT ACHIEVED WITHIN TOLERANCE.
 
	SYMMETRIC DIRECT SPARSE SOLVER RUNNING ON
 	1 HOST:        1 MPI RANK  x 1 THREAD
 	NUMBER OF EQUATIONS:     18
 	NUMBER OF RHS:           1
 	NUMBER OF FLOPS:         2.109e+03

     CHECK POINT  START OF SOLVER     

     CHECK POINT  END OF SOLVER       

       ELAPSED USER TIME (SEC)      =   0.0000    
       ELAPSED SYSTEM TIME (SEC)    =   0.0000    
       ELAPSED TOTAL CPU TIME (SEC) =   0.0000    
       ELAPSED WALLCLOCK TIME (SEC) =            0

               CONVERGENCE CHECKS FOR EQUILIBRIUM ITERATION     4


 AVERAGE FORCE                      0.548       TIME AVG. FORCE       0.319    
 LARGEST SCALED RESIDUAL FORCE      1.753E-02   AT NODE          2   DOF  1
  CORRESPONDING RESIDUAL FORCE      1.753E-02
 LARGEST INCREMENT OF DISP.         4.926E-04   AT NODE          1   DOF  2
 LARGEST CORRECTION TO DISP.       -1.047E-05   AT NODE          2   DOF  1
          FORCE     EQUILIBRIUM NOT ACHIEVED WITHIN TOLERANCE.
 

 ***NOTE: THE SOLUTION APPEARS TO BE DIVERGING. CONVERGENCE IS JUDGED UNLIKELY.


  INCREMENT    20 STARTS. ATTEMPT NUMBER  2, TIME INCREMENT  1.232E-03
 
	SYMMETRIC DIRECT SPARSE SOLVER RUNNING ON
 	1 HOST:        1 MPI RANK  x 1 THREAD
 	NUMBER OF EQUATIONS:     18
 	NUMBER OF RHS:           1
 	NUMBER OF FLOPS:         2.109e+03

     CHECK POINT  START OF SOLVER     

     CHECK POINT  END OF SOLVER       

       ELAPSED USER TIME (SEC)      =   0.0000    
       ELAPSED SYSTEM TIME (SEC)    =   0.0000    
       ELAPSED TOTAL CPU TIME (SEC) =   0.0000    
       ELAPSED WALLCLOCK TIME (SEC) =            0

               CONVERGENCE CHECKS FOR EQUILIBRIUM ITERATION     1


 AVERAGE FORCE                      0.526       TIME AVG. FORCE       0.318    
 LARGEST SCALED RESIDUAL FORCE      6.651E-04   AT NODE          2   DOF  1
  CORRESPONDING RESIDUAL FORCE      6.651E-04
 LARGEST INCREMENT OF DISP.         1.232E-04   AT NODE          1   DOF  2
 LARGEST CORRECTION TO DISP.       -6.092E-07   AT NODE          2   DOF  1
          THE FORCE     EQUILIBRIUM EQUATIONS HAVE CONVERGED
          TIME INCREMENT MAY NOW INCREASE TO    1.847E-03

 ITERATION SUMMARY FOR THE INCREMENT:   1 TOTAL ITERATIONS, OF WHICH
   0 ARE SEVERE DISCONTINUITY ITERATIONS AND  1 ARE EQUILIBRIUM ITERATIONS.

 TIME INCREMENT COMPLETED  1.232E-03,  FRACTION OF STEP COMPLETED  1.399E-02
 STEP TIME COMPLETED       1.399E-02,  TOTAL TIME COMPLETED        1.399E-02


  INCREMENT    21 STARTS. ATTEMPT NUMBER  1, TIME INCREMENT  1.847E-03
 
	SYMMETRIC DIRECT SPARSE SOLVER RUNNING ON
 	1 HOST:        1 MPI RANK  x 1 THREAD
 	NUMBER OF EQUATIONS:     18
 	NUMBER OF RHS:           1
 	NUMBER OF FLOPS:         2.109e+03

     CHECK POINT  START OF SOLVER     

     CHECK POINT  END OF SOLVER       

       ELAPSED USER TIME (SEC)      =   0.0000    
       ELAPSED SYSTEM TIME (SEC)    =   0.0000    
       ELAPSED TOTAL CPU TIME (SEC) =   0.0000    
       ELAPSED WALLCLOCK TIME (SEC) =            0

               CONVERGENCE CHECKS FOR EQUILIBRIUM ITERATION     1


 AVERAGE FORCE                      0.537       TIME AVG. FORCE       0.328    
 LARGEST SCALED RESIDUAL FORCE     -2.517E-03   AT NODE          2   DOF  1
  CORRESPONDING RESIDUAL FORCE     -2.517E-03
 LARGEST INCREMENT OF DISP.         1.847E-04   AT NODE          1   DOF  2
 LARGEST CORRECTION TO DISP.        1.583E-06   AT NODE          2   DOF  1
          FORCE     EQUILIBRIUM NOT ACHIEVED WITHIN TOLERANCE.
 
	SYMMETRIC DIRECT SPARSE SOLVER RUNNING ON
 	1 HOST:        1 MPI RANK  x 1 THREAD
 	NUMBER OF EQUATIONS:     18
 	NUMBER OF RHS:           1
 	NUMBER OF FLOPS:         2.109e+03

     CHECK POINT  START OF SOLVER     

     CHECK POINT  END OF SOLVER       

       ELAPSED USER TIME (SEC)      =   0.0000    
       ELAPSED SYSTEM TIME (SEC)    =   0.0000    
       ELAPSED TOTAL CPU TIME (SEC) =   0.0000    
       ELAPSED WALLCLOCK TIME (SEC) =            0

               CONVERGENCE CHECKS FOR EQUILIBRIUM ITERATION     2


 AVERAGE FORCE                      0.536       TIME AVG. FORCE       0.328    
 LARGEST SCALED RESIDUAL FORCE      2.374E-03   AT NODE          2   DOF  1
  CORRESPONDING RESIDUAL FORCE      2.374E-03
 LARGEST INCREMENT OF DISP.         1.847E-04   AT NODE          1   DOF  2
 LARGEST CORRECTION TO DISP.       -1.562E-06   AT NODE          2   DOF  1
          FORCE     EQUILIBRIUM NOT ACHIEVED WITHIN TOLERANCE.
 
	SYMMETRIC DIRECT SPARSE SOLVER RUNNING ON
 	1 HOST:        1 MPI RANK  x 1 THREAD
 	NUMBER OF EQUATIONS:     18
 	NUMBER OF RHS:           1
 	NUMBER OF FLOPS:         2.109e+03

     CHECK POINT  START OF SOLVER     

     CHECK POINT  END OF SOLVER       

       ELAPSED USER TIME (SEC)      =   0.0000    
       ELAPSED SYSTEM TIME (SEC)    =   0.0000    
       ELAPSED TOTAL CPU TIME (SEC) =   0.0000    
       ELAPSED WALLCLOCK TIME (SEC) =            0

               CONVERGENCE CHECKS FOR EQUILIBRIUM ITERATION     3


 AVERAGE FORCE                      0.536       TIME AVG. FORCE       0.328    
 LARGEST SCALED RESIDUAL FORCE     -2.121E-03   AT NODE          2   DOF  1
  CORRESPONDING RESIDUAL FORCE     -2.121E-03
 LARGEST INCREMENT OF DISP.         1.847E-04   AT NODE          1   DOF  2
 LARGEST CORRECTION TO DISP.        1.547E-06   AT NODE          2   DOF  1
          FORCE     EQUILIBRIUM NOT ACHIEVED WITHIN TOLERANCE.
 
	SYMMETRIC DIRECT SPARSE SOLVER RUNNING ON
 	1 HOST:        1 MPI RANK  x 1 THREAD
 	NUMBER OF EQUATIONS:     18
 	NUMBER OF RHS:           1
 	NUMBER OF FLOPS:         2.109e+03

     CHECK POINT  START OF SOLVER     

     CHECK POINT  END OF SOLVER       

       ELAPSED USER TIME (SEC)      =   0.0000    
       ELAPSED SYSTEM TIME (SEC)    =   0.0000    
       ELAPSED TOTAL CPU TIME (SEC) =   0.0000    
       ELAPSED WALLCLOCK TIME (SEC) =            0

               CONVERGENCE CHECKS FOR EQUILIBRIUM ITERATION     4


 AVERAGE FORCE                      0.536       TIME AVG. FORCE       0.328    
 LARGEST SCALED RESIDUAL FORCE      1.874E-03   AT NODE          2   DOF  1
  CORRESPONDING RESIDUAL FORCE      1.874E-03
 LARGEST INCREMENT OF DISP.         1.847E-04   AT NODE          1   DOF  2
 LARGEST CORRECTION TO DISP.       -1.394E-06   AT NODE          2   DOF  1
          FORCE     EQUILIBRIUM NOT ACHIEVED WITHIN TOLERANCE.
 
	SYMMETRIC DIRECT SPARSE SOLVER RUNNING ON
 	1 HOST:        1 MPI RANK  x 1 THREAD
 	NUMBER OF EQUATIONS:     18
 	NUMBER OF RHS:           1
 	NUMBER OF FLOPS:         2.109e+03

     CHECK POINT  START OF SOLVER     

     CHECK POINT  END OF SOLVER       

       ELAPSED USER TIME (SEC)      =   0.0000    
       ELAPSED SYSTEM TIME (SEC)    =   0.0000    
       ELAPSED TOTAL CPU TIME (SEC) =   0.0000    
       ELAPSED WALLCLOCK TIME (SEC) =            0

               CONVERGENCE CHECKS FOR EQUILIBRIUM ITERATION     5


 AVERAGE FORCE                      0.536       TIME AVG. FORCE       0.328    
 LARGEST SCALED RESIDUAL FORCE     -1.653E-03   AT NODE          2   DOF  1
  CORRESPONDING RESIDUAL FORCE     -1.653E-03
 LARGEST INCREMENT OF DISP.         1.847E-04   AT NODE          1   DOF  2
 LARGEST CORRECTION TO DISP.        1.234E-06   AT NODE          2   DOF  1
          FORCE     EQUILIBRIUM NOT ACHIEVED WITHIN TOLERANCE.
 
	SYMMETRIC DIRECT SPARSE SOLVER RUNNING ON
 	1 HOST:        1 MPI RANK  x 1 THREAD
 	NUMBER OF EQUATIONS:     18
 	NUMBER OF RHS:           1
 	NUMBER OF FLOPS:         2.109e+03

     CHECK POINT  START OF SOLVER     

     CHECK POINT  END OF SOLVER       

       ELAPSED USER TIME (SEC)      =   0.0000    
       ELAPSED SYSTEM TIME (SEC)    =   0.0000    
       ELAPSED TOTAL CPU TIME (SEC) =   0.0000    
       ELAPSED WALLCLOCK TIME (SEC) =            0

               CONVERGENCE CHECKS FOR EQUILIBRIUM ITERATION     6


 AVERAGE FORCE                      0.536       TIME AVG. FORCE       0.328    
 LARGEST SCALED RESIDUAL FORCE      1.456E-03   AT NODE          2   DOF  1
  CORRESPONDING RESIDUAL FORCE      1.456E-03
 LARGEST INCREMENT OF DISP.         1.847E-04   AT NODE          1   DOF  2
 LARGEST CORRECTION TO DISP.       -1.089E-06   AT NODE          2   DOF  1
          THE FORCE     EQUILIBRIUM EQUATIONS HAVE CONVERGED

 ITERATION SUMMARY FOR THE INCREMENT:   6 TOTAL ITERATIONS, OF WHICH
   0 ARE SEVERE DISCONTINUITY ITERATIONS AND  6 ARE EQUILIBRIUM ITERATIONS.

 TIME INCREMENT COMPLETED  1.847E-03,  FRACTION OF STEP COMPLETED  1.584E-02
 STEP TIME COMPLETED       1.584E-02,  TOTAL TIME COMPLETED        1.584E-02


  INCREMENT    22 STARTS. ATTEMPT NUMBER  1, TIME INCREMENT  1.847E-03
 
	SYMMETRIC DIRECT SPARSE SOLVER RUNNING ON
 	1 HOST:        1 MPI RANK  x 1 THREAD
 	NUMBER OF EQUATIONS:     18
 	NUMBER OF RHS:           1
 	NUMBER OF FLOPS:         2.109e+03

     CHECK POINT  START OF SOLVER     

     CHECK POINT  END OF SOLVER       

       ELAPSED USER TIME (SEC)      =   0.0000    
       ELAPSED SYSTEM TIME (SEC)    =   0.0000    
       ELAPSED TOTAL CPU TIME (SEC) =   0.0000    
       ELAPSED WALLCLOCK TIME (SEC) =            0

               CONVERGENCE CHECKS FOR EQUILIBRIUM ITERATION     1


 AVERAGE FORCE                      0.546       TIME AVG. FORCE       0.338    
 LARGEST SCALED RESIDUAL FORCE     -2.721E-03   AT NODE          2   DOF  1
  CORRESPONDING RESIDUAL FORCE     -2.721E-03
 LARGEST INCREMENT OF DISP.         1.847E-04   AT NODE          1   DOF  2
 LARGEST CORRECTION TO DISP.        1.635E-06   AT NODE          2   DOF  1
          FORCE     EQUILIBRIUM NOT ACHIEVED WITHIN TOLERANCE.
 
	SYMMETRIC DIRECT SPARSE SOLVER RUNNING ON
 	1 HOST:        1 MPI RANK  x 1 THREAD
 	NUMBER OF EQUATIONS:     18
 	NUMBER OF RHS:           1
 	NUMBER OF FLOPS:         2.109e+03

     CHECK POINT  START OF SOLVER     

     CHECK POINT  END OF SOLVER       

       ELAPSED USER TIME (SEC)      =   0.0000    
       ELAPSED SYSTEM TIME (SEC)    =   0.0000    
       ELAPSED TOTAL CPU TIME (SEC) =   0.0000    
       ELAPSED WALLCLOCK TIME (SEC) =            0

               CONVERGENCE CHECKS FOR EQUILIBRIUM ITERATION     2


 AVERAGE FORCE                      0.545       TIME AVG. FORCE       0.338    
 LARGEST SCALED RESIDUAL FORCE      2.505E-03   AT NODE          2   DOF  1
  CORRESPONDING RESIDUAL FORCE      2.505E-03
 LARGEST INCREMENT OF DISP.         1.847E-04   AT NODE          1   DOF  2
 LARGEST CORRECTION TO DISP.       -1.692E-06   AT NODE          2   DOF  1
          FORCE     EQUILIBRIUM NOT ACHIEVED WITHIN TOLERANCE.
 
	SYMMETRIC DIRECT SPARSE SOLVER RUNNING ON
 	1 HOST:        1 MPI RANK  x 1 THREAD
 	NUMBER OF EQUATIONS:     18
 	NUMBER OF RHS:           1
 	NUMBER OF FLOPS:         2.109e+03

     CHECK POINT  START OF SOLVER     

     CHECK POINT  END OF SOLVER       

       ELAPSED USER TIME (SEC)      =   0.0000    
       ELAPSED SYSTEM TIME (SEC)    =   0.0000    
       ELAPSED TOTAL CPU TIME (SEC) =   0.0000    
       ELAPSED WALLCLOCK TIME (SEC) =            0

               CONVERGENCE CHECKS FOR EQUILIBRIUM ITERATION     3


 AVERAGE FORCE                      0.545       TIME AVG. FORCE       0.338    
 LARGEST SCALED RESIDUAL FORCE     -2.207E-03   AT NODE          2   DOF  1
  CORRESPONDING RESIDUAL FORCE     -2.207E-03
 LARGEST INCREMENT OF DISP.         1.847E-04   AT NODE          1   DOF  2
 LARGEST CORRECTION TO DISP.        1.624E-06   AT NODE          2   DOF  1
          FORCE     EQUILIBRIUM NOT ACHIEVED WITHIN TOLERANCE.
 
	SYMMETRIC DIRECT SPARSE SOLVER RUNNING ON
 	1 HOST:        1 MPI RANK  x 1 THREAD
 	NUMBER OF EQUATIONS:     18
 	NUMBER OF RHS:           1
 	NUMBER OF FLOPS:         2.109e+03

     CHECK POINT  START OF SOLVER     

     CHECK POINT  END OF SOLVER       

       ELAPSED USER TIME (SEC)      =   0.0000    
       ELAPSED SYSTEM TIME (SEC)    =  0.10000    
       ELAPSED TOTAL CPU TIME (SEC) =  0.10000    
       ELAPSED WALLCLOCK TIME (SEC) =            0

               CONVERGENCE CHECKS FOR EQUILIBRIUM ITERATION     4


 AVERAGE FORCE                      0.545       TIME AVG. FORCE       0.338    
 LARGEST SCALED RESIDUAL FORCE      1.926E-03   AT NODE          2   DOF  1
  CORRESPONDING RESIDUAL FORCE      1.926E-03
 LARGEST INCREMENT OF DISP.         1.847E-04   AT NODE          1   DOF  2
 LARGEST CORRECTION TO DISP.       -1.442E-06   AT NODE          2   DOF  1
          FORCE     EQUILIBRIUM NOT ACHIEVED WITHIN TOLERANCE.
 
	SYMMETRIC DIRECT SPARSE SOLVER RUNNING ON
 	1 HOST:        1 MPI RANK  x 1 THREAD
 	NUMBER OF EQUATIONS:     18
 	NUMBER OF RHS:           1
 	NUMBER OF FLOPS:         2.109e+03

     CHECK POINT  START OF SOLVER     

     CHECK POINT  END OF SOLVER       

       ELAPSED USER TIME (SEC)      =   0.0000    
       ELAPSED SYSTEM TIME (SEC)    =   0.0000    
       ELAPSED TOTAL CPU TIME (SEC) =   0.0000    
       ELAPSED WALLCLOCK TIME (SEC) =            0

               CONVERGENCE CHECKS FOR EQUILIBRIUM ITERATION     5


 AVERAGE FORCE                      0.545       TIME AVG. FORCE       0.338    
 LARGEST SCALED RESIDUAL FORCE     -1.678E-03   AT NODE          2   DOF  1
  CORRESPONDING RESIDUAL FORCE     -1.678E-03
 LARGEST INCREMENT OF DISP.         1.847E-04   AT NODE          1   DOF  2
 LARGEST CORRECTION TO DISP.        1.261E-06   AT NODE          2   DOF  1
          THE FORCE     EQUILIBRIUM EQUATIONS HAVE CONVERGED

 ITERATION SUMMARY FOR THE INCREMENT:   5 TOTAL ITERATIONS, OF WHICH
   0 ARE SEVERE DISCONTINUITY ITERATIONS AND  5 ARE EQUILIBRIUM ITERATIONS.

 TIME INCREMENT COMPLETED  1.847E-03,  FRACTION OF STEP COMPLETED  1.769E-02
 STEP TIME COMPLETED       1.769E-02,  TOTAL TIME COMPLETED        1.769E-02


  INCREMENT    23 STARTS. ATTEMPT NUMBER  1, TIME INCREMENT  1.847E-03
 
	SYMMETRIC DIRECT SPARSE SOLVER RUNNING ON
 	1 HOST:        1 MPI RANK  x 1 THREAD
 	NUMBER OF EQUATIONS:     18
 	NUMBER OF RHS:           1
 	NUMBER OF FLOPS:         2.109e+03

     CHECK POINT  START OF SOLVER     

     CHECK POINT  END OF SOLVER       

       ELAPSED USER TIME (SEC)      =   0.0000    
       ELAPSED SYSTEM TIME (SEC)    =   0.0000    
       ELAPSED TOTAL CPU TIME (SEC) =   0.0000    
       ELAPSED WALLCLOCK TIME (SEC) =            0

               CONVERGENCE CHECKS FOR EQUILIBRIUM ITERATION     1


 AVERAGE FORCE                      0.553       TIME AVG. FORCE       0.347    
 LARGEST SCALED RESIDUAL FORCE      2.289E-03   AT NODE          2   DOF  1
  CORRESPONDING RESIDUAL FORCE      2.289E-03
 LARGEST INCREMENT OF DISP.         1.847E-04   AT NODE          1   DOF  2
 LARGEST CORRECTION TO DISP.       -1.882E-06   AT NODE          2   DOF  1
          FORCE     EQUILIBRIUM NOT ACHIEVED WITHIN TOLERANCE.
 
	SYMMETRIC DIRECT SPARSE SOLVER RUNNING ON
 	1 HOST:        1 MPI RANK  x 1 THREAD
 	NUMBER OF EQUATIONS:     18
 	NUMBER OF RHS:           1
 	NUMBER OF FLOPS:         2.109e+03

     CHECK POINT  START OF SOLVER     

     CHECK POINT  END OF SOLVER       

       ELAPSED USER TIME (SEC)      =   0.0000    
       ELAPSED SYSTEM TIME (SEC)    =   0.0000    
       ELAPSED TOTAL CPU TIME (SEC) =   0.0000    
       ELAPSED WALLCLOCK TIME (SEC) =            0

               CONVERGENCE CHECKS FOR EQUILIBRIUM ITERATION     2


 AVERAGE FORCE                      0.553       TIME AVG. FORCE       0.347    
 LARGEST SCALED RESIDUAL FORCE     -1.957E-03   AT NODE          2   DOF  1
  CORRESPONDING RESIDUAL FORCE     -1.957E-03
 LARGEST INCREMENT OF DISP.         1.847E-04   AT NODE          1   DOF  2
 LARGEST CORRECTION TO DISP.        1.508E-06   AT NODE          2   DOF  1
          FORCE     EQUILIBRIUM NOT ACHIEVED WITHIN TOLERANCE.
 
	SYMMETRIC DIRECT SPARSE SOLVER RUNNING ON
 	1 HOST:        1 MPI RANK  x 1 THREAD
 	NUMBER OF EQUATIONS:     18
 	NUMBER OF RHS:           1
 	NUMBER OF FLOPS:         2.109e+03

     CHECK POINT  START OF SOLVER     

     CHECK POINT  END OF SOLVER       

       ELAPSED USER TIME (SEC)      =   0.0000    
       ELAPSED SYSTEM TIME (SEC)    =   0.0000    
       ELAPSED TOTAL CPU TIME (SEC) =   0.0000    
       ELAPSED WALLCLOCK TIME (SEC) =            0

               CONVERGENCE CHECKS FOR EQUILIBRIUM ITERATION     3


 AVERAGE FORCE                      0.553       TIME AVG. FORCE       0.347    
 LARGEST SCALED RESIDUAL FORCE      1.682E-03   AT NODE          2   DOF  1
  CORRESPONDING RESIDUAL FORCE      1.682E-03
 LARGEST INCREMENT OF DISP.         1.847E-04   AT NODE          1   DOF  2
 LARGEST CORRECTION TO DISP.       -1.279E-06   AT NODE          2   DOF  1
          THE FORCE     EQUILIBRIUM EQUATIONS HAVE CONVERGED

 ITERATION SUMMARY FOR THE INCREMENT:   3 TOTAL ITERATIONS, OF WHICH
   0 ARE SEVERE DISCONTINUITY ITERATIONS AND  3 ARE EQUILIBRIUM ITERATIONS.

 TIME INCREMENT COMPLETED  1.847E-03,  FRACTION OF STEP COMPLETED  1.954E-02
 STEP TIME COMPLETED       1.954E-02,  TOTAL TIME COMPLETED        1.954E-02


  INCREMENT    24 STARTS. ATTEMPT NUMBER  1, TIME INCREMENT  1.847E-03
 
	SYMMETRIC DIRECT SPARSE SOLVER RUNNING ON
 	1 HOST:        1 MPI RANK  x 1 THREAD
 	NUMBER OF EQUATIONS:     18
 	NUMBER OF RHS:           1
 	NUMBER OF FLOPS:         2.109e+03

     CHECK POINT  START OF SOLVER     

     CHECK POINT  END OF SOLVER       

       ELAPSED USER TIME (SEC)      =   0.0000    
       ELAPSED SYSTEM TIME (SEC)    =   0.0000    
       ELAPSED TOTAL CPU TIME (SEC) =   0.0000    
       ELAPSED WALLCLOCK TIME (SEC) =            0

               CONVERGENCE CHECKS FOR EQUILIBRIUM ITERATION     1


 AVERAGE FORCE                      0.562       TIME AVG. FORCE       0.356    
 LARGEST SCALED RESIDUAL FORCE     -4.658E-03   AT NODE          2   DOF  1
  CORRESPONDING RESIDUAL FORCE     -4.658E-03
 LARGEST INCREMENT OF DISP.         1.847E-04   AT NODE          1   DOF  2
 LARGEST CORRECTION TO DISP.        2.839E-06   AT NODE          2   DOF  1
          FORCE     EQUILIBRIUM NOT ACHIEVED WITHIN TOLERANCE.
 
	SYMMETRIC DIRECT SPARSE SOLVER RUNNING ON
 	1 HOST:        1 MPI RANK  x 1 THREAD
 	NUMBER OF EQUATIONS:     18
 	NUMBER OF RHS:           1
 	NUMBER OF FLOPS:         2.109e+03

     CHECK POINT  START OF SOLVER     

     CHECK POINT  END OF SOLVER       

       ELAPSED USER TIME (SEC)      =   0.0000    
       ELAPSED SYSTEM TIME (SEC)    =   0.0000    
       ELAPSED TOTAL CPU TIME (SEC) =   0.0000    
       ELAPSED WALLCLOCK TIME (SEC) =            0

               CONVERGENCE CHECKS FOR EQUILIBRIUM ITERATION     2


 AVERAGE FORCE                      0.560       TIME AVG. FORCE       0.356    
 LARGEST SCALED RESIDUAL FORCE      4.215E-03   AT NODE          2   DOF  1
  CORRESPONDING RESIDUAL FORCE      4.215E-03
 LARGEST INCREMENT OF DISP.         1.847E-04   AT NODE          1   DOF  2
 LARGEST CORRECTION TO DISP.       -2.854E-06   AT NODE          2   DOF  1
          FORCE     EQUILIBRIUM NOT ACHIEVED WITHIN TOLERANCE.
 
	SYMMETRIC DIRECT SPARSE SOLVER RUNNING ON
 	1 HOST:        1 MPI RANK  x 1 THREAD
 	NUMBER OF EQUATIONS:     18
 	NUMBER OF RHS:           1
 	NUMBER OF FLOPS:         2.109e+03

     CHECK POINT  START OF SOLVER     

     CHECK POINT  END OF SOLVER       

       ELAPSED USER TIME (SEC)      =   0.0000    
       ELAPSED SYSTEM TIME (SEC)    =   0.0000    
       ELAPSED TOTAL CPU TIME (SEC) =   0.0000    
       ELAPSED WALLCLOCK TIME (SEC) =            0

               CONVERGENCE CHECKS FOR EQUILIBRIUM ITERATION     3


 AVERAGE FORCE                      0.561       TIME AVG. FORCE       0.356    
 LARGEST SCALED RESIDUAL FORCE     -3.641E-03   AT NODE          2   DOF  1
  CORRESPONDING RESIDUAL FORCE     -3.641E-03
 LARGEST INCREMENT OF DISP.         1.847E-04   AT NODE          1   DOF  2
 LARGEST CORRECTION TO DISP.        2.704E-06   AT NODE          2   DOF  1
          FORCE     EQUILIBRIUM NOT ACHIEVED WITHIN TOLERANCE.
 
	SYMMETRIC DIRECT SPARSE SOLVER RUNNING ON
 	1 HOST:        1 MPI RANK  x 1 THREAD
 	NUMBER OF EQUATIONS:     18
 	NUMBER OF RHS:           1
 	NUMBER OF FLOPS:         2.109e+03

     CHECK POINT  START OF SOLVER     

     CHECK POINT  END OF SOLVER       

       ELAPSED USER TIME (SEC)      =   0.0000    
       ELAPSED SYSTEM TIME (SEC)    =   0.0000    
       ELAPSED TOTAL CPU TIME (SEC) =   0.0000    
       ELAPSED WALLCLOCK TIME (SEC) =            0

               CONVERGENCE CHECKS FOR EQUILIBRIUM ITERATION     4


 AVERAGE FORCE                      0.560       TIME AVG. FORCE       0.356    
 LARGEST SCALED RESIDUAL FORCE      3.110E-03   AT NODE          2   DOF  1
  CORRESPONDING RESIDUAL FORCE      3.110E-03
 LARGEST INCREMENT OF DISP.         1.847E-04   AT NODE          1   DOF  2
 LARGEST CORRECTION TO DISP.       -2.355E-06   AT NODE          2   DOF  1
          FORCE     EQUILIBRIUM NOT ACHIEVED WITHIN TOLERANCE.
 
	SYMMETRIC DIRECT SPARSE SOLVER RUNNING ON
 	1 HOST:        1 MPI RANK  x 1 THREAD
 	NUMBER OF EQUATIONS:     18
 	NUMBER OF RHS:           1
 	NUMBER OF FLOPS:         2.109e+03

     CHECK POINT  START OF SOLVER     

     CHECK POINT  END OF SOLVER       

       ELAPSED USER TIME (SEC)      =   0.0000    
       ELAPSED SYSTEM TIME (SEC)    =   0.0000    
       ELAPSED TOTAL CPU TIME (SEC) =   0.0000    
       ELAPSED WALLCLOCK TIME (SEC) =            0

               CONVERGENCE CHECKS FOR EQUILIBRIUM ITERATION     5


 AVERAGE FORCE                      0.561       TIME AVG. FORCE       0.356    
 LARGEST SCALED RESIDUAL FORCE     -2.654E-03   AT NODE          2   DOF  1
  CORRESPONDING RESIDUAL FORCE     -2.654E-03
 LARGEST INCREMENT OF DISP.         1.847E-04   AT NODE          1   DOF  2
 LARGEST CORRECTION TO DISP.        2.017E-06   AT NODE          2   DOF  1
          FORCE     EQUILIBRIUM NOT ACHIEVED WITHIN TOLERANCE.
 
	SYMMETRIC DIRECT SPARSE SOLVER RUNNING ON
 	1 HOST:        1 MPI RANK  x 1 THREAD
 	NUMBER OF EQUATIONS:     18
 	NUMBER OF RHS:           1
 	NUMBER OF FLOPS:         2.109e+03

     CHECK POINT  START OF SOLVER     

     CHECK POINT  END OF SOLVER       

       ELAPSED USER TIME (SEC)      =   0.0000    
       ELAPSED SYSTEM TIME (SEC)    =   0.0000    
       ELAPSED TOTAL CPU TIME (SEC) =   0.0000    
       ELAPSED WALLCLOCK TIME (SEC) =            0

               CONVERGENCE CHECKS FOR EQUILIBRIUM ITERATION     6


 AVERAGE FORCE                      0.560       TIME AVG. FORCE       0.356    
 LARGEST SCALED RESIDUAL FORCE      2.262E-03   AT NODE          2   DOF  1
  CORRESPONDING RESIDUAL FORCE      2.262E-03
 LARGEST INCREMENT OF DISP.         1.847E-04   AT NODE          1   DOF  2
 LARGEST CORRECTION TO DISP.       -1.721E-06   AT NODE          2   DOF  1
          FORCE     EQUILIBRIUM NOT ACHIEVED WITHIN TOLERANCE.
 
	SYMMETRIC DIRECT SPARSE SOLVER RUNNING ON
 	1 HOST:        1 MPI RANK  x 1 THREAD
 	NUMBER OF EQUATIONS:     18
 	NUMBER OF RHS:           1
 	NUMBER OF FLOPS:         2.109e+03

     CHECK POINT  START OF SOLVER     

     CHECK POINT  END OF SOLVER       

       ELAPSED USER TIME (SEC)      =   0.0000    
       ELAPSED SYSTEM TIME (SEC)    =   0.0000    
       ELAPSED TOTAL CPU TIME (SEC) =   0.0000    
       ELAPSED WALLCLOCK TIME (SEC) =            0

               CONVERGENCE CHECKS FOR EQUILIBRIUM ITERATION     7


 AVERAGE FORCE                      0.561       TIME AVG. FORCE       0.356    
 LARGEST SCALED RESIDUAL FORCE     -1.929E-03   AT NODE          2   DOF  1
  CORRESPONDING RESIDUAL FORCE     -1.929E-03
 LARGEST INCREMENT OF DISP.         1.847E-04   AT NODE          1   DOF  2
 LARGEST CORRECTION TO DISP.        1.468E-06   AT NODE          2   DOF  1
          FORCE     EQUILIBRIUM NOT ACHIEVED WITHIN TOLERANCE.
 
	SYMMETRIC DIRECT SPARSE SOLVER RUNNING ON
 	1 HOST:        1 MPI RANK  x 1 THREAD
 	NUMBER OF EQUATIONS:     18
 	NUMBER OF RHS:           1
 	NUMBER OF FLOPS:         2.109e+03

     CHECK POINT  START OF SOLVER     

     CHECK POINT  END OF SOLVER       

       ELAPSED USER TIME (SEC)      =   0.0000    
       ELAPSED SYSTEM TIME (SEC)    =   0.0000    
       ELAPSED TOTAL CPU TIME (SEC) =   0.0000    
       ELAPSED WALLCLOCK TIME (SEC) =            0

               CONVERGENCE CHECKS FOR EQUILIBRIUM ITERATION     8


 AVERAGE FORCE                      0.560       TIME AVG. FORCE       0.356    
 LARGEST SCALED RESIDUAL FORCE      1.644E-03   AT NODE          2   DOF  1
  CORRESPONDING RESIDUAL FORCE      1.644E-03
 LARGEST INCREMENT OF DISP.         1.847E-04   AT NODE          1   DOF  2
 LARGEST CORRECTION TO DISP.       -1.251E-06   AT NODE          2   DOF  1
          THE FORCE     EQUILIBRIUM EQUATIONS HAVE CONVERGED

 ITERATION SUMMARY FOR THE INCREMENT:   8 TOTAL ITERATIONS, OF WHICH
   0 ARE SEVERE DISCONTINUITY ITERATIONS AND  8 ARE EQUILIBRIUM ITERATIONS.

 TIME INCREMENT COMPLETED  1.847E-03,  FRACTION OF STEP COMPLETED  2.138E-02
 STEP TIME COMPLETED       2.138E-02,  TOTAL TIME COMPLETED        2.138E-02


  INCREMENT    25 STARTS. ATTEMPT NUMBER  1, TIME INCREMENT  1.847E-03
 
	SYMMETRIC DIRECT SPARSE SOLVER RUNNING ON
 	1 HOST:        1 MPI RANK  x 1 THREAD
 	NUMBER OF EQUATIONS:     18
 	NUMBER OF RHS:           1
 	NUMBER OF FLOPS:         2.109e+03

     CHECK POINT  START OF SOLVER     

     CHECK POINT  END OF SOLVER       

       ELAPSED USER TIME (SEC)      =   0.0000    
       ELAPSED SYSTEM TIME (SEC)    =   0.0000    
       ELAPSED TOTAL CPU TIME (SEC) =   0.0000    
       ELAPSED WALLCLOCK TIME (SEC) =            0

               CONVERGENCE CHECKS FOR EQUILIBRIUM ITERATION     1


 AVERAGE FORCE                      0.568       TIME AVG. FORCE       0.365    
 LARGEST SCALED RESIDUAL FORCE     -2.621E-03   AT NODE          2   DOF  1
  CORRESPONDING RESIDUAL FORCE     -2.621E-03
 LARGEST INCREMENT OF DISP.         1.847E-04   AT NODE          1   DOF  2
 LARGEST CORRECTION TO DISP.        1.530E-06   AT NODE          2   DOF  1
          FORCE     EQUILIBRIUM NOT ACHIEVED WITHIN TOLERANCE.
 
	SYMMETRIC DIRECT SPARSE SOLVER RUNNING ON
 	1 HOST:        1 MPI RANK  x 1 THREAD
 	NUMBER OF EQUATIONS:     18
 	NUMBER OF RHS:           1
 	NUMBER OF FLOPS:         2.109e+03

     CHECK POINT  START OF SOLVER     

     CHECK POINT  END OF SOLVER       

       ELAPSED USER TIME (SEC)      =   0.0000    
       ELAPSED SYSTEM TIME (SEC)    =   0.0000    
       ELAPSED TOTAL CPU TIME (SEC) =   0.0000    
       ELAPSED WALLCLOCK TIME (SEC) =            0

               CONVERGENCE CHECKS FOR EQUILIBRIUM ITERATION     2


 AVERAGE FORCE                      0.567       TIME AVG. FORCE       0.365    
 LARGEST SCALED RESIDUAL FORCE      2.356E-03   AT NODE          2   DOF  1
  CORRESPONDING RESIDUAL FORCE      2.356E-03
 LARGEST INCREMENT OF DISP.         1.847E-04   AT NODE          1   DOF  2
 LARGEST CORRECTION TO DISP.       -1.591E-06   AT NODE          2   DOF  1
          FORCE     EQUILIBRIUM NOT ACHIEVED WITHIN TOLERANCE.
 
	SYMMETRIC DIRECT SPARSE SOLVER RUNNING ON
 	1 HOST:        1 MPI RANK  x 1 THREAD
 	NUMBER OF EQUATIONS:     18
 	NUMBER OF RHS:           1
 	NUMBER OF FLOPS:         2.109e+03

     CHECK POINT  START OF SOLVER     

     CHECK POINT  END OF SOLVER       

       ELAPSED USER TIME (SEC)      =   0.0000    
       ELAPSED SYSTEM TIME (SEC)    =   0.0000    
       ELAPSED TOTAL CPU TIME (SEC) =   0.0000    
       ELAPSED WALLCLOCK TIME (SEC) =            0

               CONVERGENCE CHECKS FOR EQUILIBRIUM ITERATION     3


 AVERAGE FORCE                      0.567       TIME AVG. FORCE       0.365    
 LARGEST SCALED RESIDUAL FORCE     -2.017E-03   AT NODE          2   DOF  1
  CORRESPONDING RESIDUAL FORCE     -2.017E-03
 LARGEST INCREMENT OF DISP.         1.847E-04   AT NODE          1   DOF  2
 LARGEST CORRECTION TO DISP.        1.502E-06   AT NODE          2   DOF  1
          FORCE     EQUILIBRIUM NOT ACHIEVED WITHIN TOLERANCE.
 
	SYMMETRIC DIRECT SPARSE SOLVER RUNNING ON
 	1 HOST:        1 MPI RANK  x 1 THREAD
 	NUMBER OF EQUATIONS:     18
 	NUMBER OF RHS:           1
 	NUMBER OF FLOPS:         2.109e+03

     CHECK POINT  START OF SOLVER     

     CHECK POINT  END OF SOLVER       

       ELAPSED USER TIME (SEC)      =   0.0000    
       ELAPSED SYSTEM TIME (SEC)    =   0.0000    
       ELAPSED TOTAL CPU TIME (SEC) =   0.0000    
       ELAPSED WALLCLOCK TIME (SEC) =            0

               CONVERGENCE CHECKS FOR EQUILIBRIUM ITERATION     4


 AVERAGE FORCE                      0.567       TIME AVG. FORCE       0.365    
 LARGEST SCALED RESIDUAL FORCE      1.707E-03   AT NODE          2   DOF  1
  CORRESPONDING RESIDUAL FORCE      1.707E-03
 LARGEST INCREMENT OF DISP.         1.847E-04   AT NODE          1   DOF  2
 LARGEST CORRECTION TO DISP.       -1.298E-06   AT NODE          2   DOF  1
          THE FORCE     EQUILIBRIUM EQUATIONS HAVE CONVERGED

 ITERATION SUMMARY FOR THE INCREMENT:   4 TOTAL ITERATIONS, OF WHICH
   0 ARE SEVERE DISCONTINUITY ITERATIONS AND  4 ARE EQUILIBRIUM ITERATIONS.

 TIME INCREMENT COMPLETED  1.847E-03,  FRACTION OF STEP COMPLETED  2.323E-02
 STEP TIME COMPLETED       2.323E-02,  TOTAL TIME COMPLETED        2.323E-02


  INCREMENT    26 STARTS. ATTEMPT NUMBER  1, TIME INCREMENT  1.847E-03
 
[...]
       ELAPSED SYSTEM TIME (SEC)    =   0.0000    
       ELAPSED TOTAL CPU TIME (SEC) =   0.0000    
       ELAPSED WALLCLOCK TIME (SEC) =            0
 

 ***WARNING: THE SYSTEM MATRIX HAS 1 NEGATIVE EIGENVALUES.
             EXPLANATIONS ARE SUGGESTED AFTER THE FIRST OCCURRENCE OF THIS MESSAGE.

               CONVERGENCE CHECKS FOR EQUILIBRIUM ITERATION     4


 AVERAGE FORCE                      0.678       TIME AVG. FORCE       0.577    
 LARGEST SCALED RESIDUAL FORCE      5.891E-03   AT NODE          2   DOF  1
  CORRESPONDING RESIDUAL FORCE      5.891E-03
 LARGEST INCREMENT OF DISP.         3.336E-04   AT NODE          1   DOF  2
 LARGEST CORRECTION TO DISP.       -4.050E-06   AT NODE          2   DOF  1
          FORCE     EQUILIBRIUM NOT ACHIEVED WITHIN TOLERANCE.
 

 ***NOTE: THE SOLUTION APPEARS TO BE DIVERGING. CONVERGENCE IS JUDGED UNLIKELY.


  INCREMENT    96 STARTS. ATTEMPT NUMBER  2, TIME INCREMENT  8.340E-04
 
	SYMMETRIC DIRECT SPARSE SOLVER RUNNING ON
 	1 HOST:        1 MPI RANK  x 1 THREAD
 	NUMBER OF EQUATIONS:     18
 	NUMBER OF RHS:           1
 	NUMBER OF FLOPS:         2.109e+03

     CHECK POINT  START OF SOLVER     

     CHECK POINT  END OF SOLVER       

       ELAPSED USER TIME (SEC)      =   0.0000    
       ELAPSED SYSTEM TIME (SEC)    =   0.0000    
       ELAPSED TOTAL CPU TIME (SEC) =   0.0000    
       ELAPSED WALLCLOCK TIME (SEC) =            0
 

 ***WARNING: THE SYSTEM MATRIX HAS 1 NEGATIVE EIGENVALUES.
             EXPLANATIONS ARE SUGGESTED AFTER THE FIRST OCCURRENCE OF THIS MESSAGE.

               CONVERGENCE CHECKS FOR EQUILIBRIUM ITERATION     1


 AVERAGE FORCE                      0.739       TIME AVG. FORCE       0.578    
 LARGEST SCALED RESIDUAL FORCE     -1.112E-04   AT NODE          5   DOF  3
  CORRESPONDING RESIDUAL FORCE     -1.112E-04
 LARGEST INCREMENT OF DISP.         8.340E-05   AT NODE          1   DOF  2
 LARGEST CORRECTION TO DISP.       -7.571E-07   AT NODE          2   DOF  1
          THE FORCE     EQUILIBRIUM EQUATIONS HAVE CONVERGED
          TIME INCREMENT MAY NOW INCREASE TO    1.251E-03

 ITERATION SUMMARY FOR THE INCREMENT:   1 TOTAL ITERATIONS, OF WHICH
   0 ARE SEVERE DISCONTINUITY ITERATIONS AND  1 ARE EQUILIBRIUM ITERATIONS.

 TIME INCREMENT COMPLETED  8.340E-04,  FRACTION OF STEP COMPLETED  0.135    
 STEP TIME COMPLETED       0.135    ,  TOTAL TIME COMPLETED        0.135    


  INCREMENT    97 STARTS. ATTEMPT NUMBER  1, TIME INCREMENT  1.251E-03
 
	SYMMETRIC DIRECT SPARSE SOLVER RUNNING ON
 	1 HOST:        1 MPI RANK  x 1 THREAD
 	NUMBER OF EQUATIONS:     18
 	NUMBER OF RHS:           1
 	NUMBER OF FLOPS:         2.109e+03

     CHECK POINT  START OF SOLVER     

     CHECK POINT  END OF SOLVER       

       ELAPSED USER TIME (SEC)      =   0.0000    
       ELAPSED SYSTEM TIME (SEC)    =   0.0000    
       ELAPSED TOTAL CPU TIME (SEC) =   0.0000    
       ELAPSED WALLCLOCK TIME (SEC) =            0
 

 ***WARNING: THE SYSTEM MATRIX HAS 1 NEGATIVE EIGENVALUES.
             EXPLANATIONS ARE SUGGESTED AFTER THE FIRST OCCURRENCE OF THIS MESSAGE.

               CONVERGENCE CHECKS FOR EQUILIBRIUM ITERATION     1


 AVERAGE FORCE                      0.678       TIME AVG. FORCE       0.579    
 LARGEST SCALED RESIDUAL FORCE     -8.869E-04   AT NODE          2   DOF  1
  CORRESPONDING RESIDUAL FORCE     -8.869E-04
 LARGEST INCREMENT OF DISP.         1.251E-04   AT NODE          1   DOF  2
 LARGEST CORRECTION TO DISP.        6.709E-07   AT NODE          4   DOF  1
          THE FORCE     EQUILIBRIUM EQUATIONS HAVE CONVERGED
          TIME INCREMENT MAY NOW INCREASE TO    1.876E-03

 ITERATION SUMMARY FOR THE INCREMENT:   1 TOTAL ITERATIONS, OF WHICH
   0 ARE SEVERE DISCONTINUITY ITERATIONS AND  1 ARE EQUILIBRIUM ITERATIONS.

 TIME INCREMENT COMPLETED  1.251E-03,  FRACTION OF STEP COMPLETED  0.136    
 STEP TIME COMPLETED       0.136    ,  TOTAL TIME COMPLETED        0.136    


  INCREMENT    98 STARTS. ATTEMPT NUMBER  1, TIME INCREMENT  1.876E-03
 
	SYMMETRIC DIRECT SPARSE SOLVER RUNNING ON
 	1 HOST:        1 MPI RANK  x 1 THREAD
 	NUMBER OF EQUATIONS:     18
 	NUMBER OF RHS:           1
 	NUMBER OF FLOPS:         2.109e+03

     CHECK POINT  START OF SOLVER     

     CHECK POINT  END OF SOLVER       

       ELAPSED USER TIME (SEC)      =   0.0000    
       ELAPSED SYSTEM TIME (SEC)    =   0.0000    
       ELAPSED TOTAL CPU TIME (SEC) =   0.0000    
       ELAPSED WALLCLOCK TIME (SEC) =            0
 

 ***WARNING: THE SYSTEM MATRIX HAS 1 NEGATIVE EIGENVALUES.
             EXPLANATIONS ARE SUGGESTED AFTER THE FIRST OCCURRENCE OF THIS MESSAGE.

               CONVERGENCE CHECKS FOR EQUILIBRIUM ITERATION     1


 AVERAGE FORCE                      0.678       TIME AVG. FORCE       0.580    
 LARGEST SCALED RESIDUAL FORCE      4.080E-04   AT NODE          2   DOF  1
  CORRESPONDING RESIDUAL FORCE      4.080E-04
 LARGEST INCREMENT OF DISP.         1.876E-04   AT NODE          1   DOF  2
 LARGEST CORRECTION TO DISP.        1.370E-06   AT NODE          6   DOF  3
          THE FORCE     EQUILIBRIUM EQUATIONS HAVE CONVERGED
          TIME INCREMENT MAY NOW INCREASE TO    2.815E-03

 ITERATION SUMMARY FOR THE INCREMENT:   1 TOTAL ITERATIONS, OF WHICH
   0 ARE SEVERE DISCONTINUITY ITERATIONS AND  1 ARE EQUILIBRIUM ITERATIONS.

 TIME INCREMENT COMPLETED  1.876E-03,  FRACTION OF STEP COMPLETED  0.138    
 STEP TIME COMPLETED       0.138    ,  TOTAL TIME COMPLETED        0.138    


  INCREMENT    99 STARTS. ATTEMPT NUMBER  1, TIME INCREMENT  2.815E-03
 
	SYMMETRIC DIRECT SPARSE SOLVER RUNNING ON
 	1 HOST:        1 MPI RANK  x 1 THREAD
 	NUMBER OF EQUATIONS:     18
 	NUMBER OF RHS:           1
 	NUMBER OF FLOPS:         2.109e+03

     CHECK POINT  START OF SOLVER     

     CHECK POINT  END OF SOLVER       

       ELAPSED USER TIME (SEC)      =   0.0000    
       ELAPSED SYSTEM TIME (SEC)    =   0.0000    
       ELAPSED TOTAL CPU TIME (SEC) =   0.0000    
       ELAPSED WALLCLOCK TIME (SEC) =            0
 

 ***WARNING: THE SYSTEM MATRIX HAS 1 NEGATIVE EIGENVALUES.
             EXPLANATIONS ARE SUGGESTED AFTER THE FIRST OCCURRENCE OF THIS MESSAGE.

               CONVERGENCE CHECKS FOR EQUILIBRIUM ITERATION     1


 AVERAGE FORCE                      0.680       TIME AVG. FORCE       0.581    
 LARGEST SCALED RESIDUAL FORCE     -4.328E-03   AT NODE          4   DOF  1
  CORRESPONDING RESIDUAL FORCE     -4.328E-03
 LARGEST INCREMENT OF DISP.         2.815E-04   AT NODE          1   DOF  2
 LARGEST CORRECTION TO DISP.        3.204E-06   AT NODE          4   DOF  1
          FORCE     EQUILIBRIUM NOT ACHIEVED WITHIN TOLERANCE.
 
	SYMMETRIC DIRECT SPARSE SOLVER RUNNING ON
 	1 HOST:        1 MPI RANK  x 1 THREAD
 	NUMBER OF EQUATIONS:     18
 	NUMBER OF RHS:           1
 	NUMBER OF FLOPS:         2.109e+03

     CHECK POINT  START OF SOLVER     

     CHECK POINT  END OF SOLVER       

       ELAPSED USER TIME (SEC)      =   0.0000    
       ELAPSED SYSTEM TIME (SEC)    =   0.0000    
       ELAPSED TOTAL CPU TIME (SEC) =   0.0000    
       ELAPSED WALLCLOCK TIME (SEC) =            0
 

 ***WARNING: THE SYSTEM MATRIX HAS 1 NEGATIVE EIGENVALUES.
             EXPLANATIONS ARE SUGGESTED AFTER THE FIRST OCCURRENCE OF THIS MESSAGE.

               CONVERGENCE CHECKS FOR EQUILIBRIUM ITERATION     2


 AVERAGE FORCE                      0.679       TIME AVG. FORCE       0.581    
 LARGEST SCALED RESIDUAL FORCE      3.953E-03   AT NODE          2   DOF  1
  CORRESPONDING RESIDUAL FORCE      3.953E-03
 LARGEST INCREMENT OF DISP.         2.815E-04   AT NODE          1   DOF  2
 LARGEST CORRECTION TO DISP.       -3.361E-06   AT NODE          4   DOF  1
          FORCE     EQUILIBRIUM NOT ACHIEVED WITHIN TOLERANCE.
 
	SYMMETRIC DIRECT SPARSE SOLVER RUNNING ON
 	1 HOST:        1 MPI RANK  x 1 THREAD
 	NUMBER OF EQUATIONS:     18
 	NUMBER OF RHS:           1
 	NUMBER OF FLOPS:         2.109e+03

     CHECK POINT  START OF SOLVER     

     CHECK POINT  END OF SOLVER       

       ELAPSED USER TIME (SEC)      =   0.0000    
       ELAPSED SYSTEM TIME (SEC)    =   0.0000    
       ELAPSED TOTAL CPU TIME (SEC) =   0.0000    
       ELAPSED WALLCLOCK TIME (SEC) =            0
 

 ***WARNING: THE SYSTEM MATRIX HAS 2 NEGATIVE EIGENVALUES.
             EXPLANATIONS ARE SUGGESTED AFTER THE FIRST OCCURRENCE OF THIS MESSAGE.

               CONVERGENCE CHECKS FOR EQUILIBRIUM ITERATION     3


 AVERAGE FORCE                      0.680       TIME AVG. FORCE       0.581    
 LARGEST SCALED RESIDUAL FORCE     -3.539E-03   AT NODE          2   DOF  1
  CORRESPONDING RESIDUAL FORCE     -3.539E-03
 LARGEST INCREMENT OF DISP.         2.815E-04   AT NODE          1   DOF  2
 LARGEST CORRECTION TO DISP.        4.023E-06   AT NODE          2   DOF  1
          FORCE     EQUILIBRIUM NOT ACHIEVED WITHIN TOLERANCE.
 
	SYMMETRIC DIRECT SPARSE SOLVER RUNNING ON
 	1 HOST:        1 MPI RANK  x 1 THREAD
 	NUMBER OF EQUATIONS:     18
 	NUMBER OF RHS:           1
 	NUMBER OF FLOPS:         2.109e+03

     CHECK POINT  START OF SOLVER     

     CHECK POINT  END OF SOLVER       

       ELAPSED USER TIME (SEC)      =   0.0000    
       ELAPSED SYSTEM TIME (SEC)    =   0.0000    
       ELAPSED TOTAL CPU TIME (SEC) =   0.0000    
       ELAPSED WALLCLOCK TIME (SEC) =            0
 

 ***WARNING: THE SYSTEM MATRIX HAS 1 NEGATIVE EIGENVALUES.
             EXPLANATIONS ARE SUGGESTED AFTER THE FIRST OCCURRENCE OF THIS MESSAGE.

               CONVERGENCE CHECKS FOR EQUILIBRIUM ITERATION     4


 AVERAGE FORCE                      0.679       TIME AVG. FORCE       0.581    
 LARGEST SCALED RESIDUAL FORCE      3.118E-03   AT NODE          2   DOF  1
  CORRESPONDING RESIDUAL FORCE      3.118E-03
 LARGEST INCREMENT OF DISP.         2.815E-04   AT NODE          1   DOF  2
 LARGEST CORRECTION TO DISP.       -2.282E-06   AT NODE          2   DOF  1
          FORCE     EQUILIBRIUM NOT ACHIEVED WITHIN TOLERANCE.
 
	SYMMETRIC DIRECT SPARSE SOLVER RUNNING ON
 	1 HOST:        1 MPI RANK  x 1 THREAD
 	NUMBER OF EQUATIONS:     18
 	NUMBER OF RHS:           1
 	NUMBER OF FLOPS:         2.109e+03

     CHECK POINT  START OF SOLVER     

     CHECK POINT  END OF SOLVER       

       ELAPSED USER TIME (SEC)      =   0.0000    
       ELAPSED SYSTEM TIME (SEC)    =   0.0000    
       ELAPSED TOTAL CPU TIME (SEC) =   0.0000    
       ELAPSED WALLCLOCK TIME (SEC) =            0
 

 ***WARNING: THE SYSTEM MATRIX HAS 2 NEGATIVE EIGENVALUES.
             EXPLANATIONS ARE SUGGESTED AFTER THE FIRST OCCURRENCE OF THIS MESSAGE.

               CONVERGENCE CHECKS FOR EQUILIBRIUM ITERATION     5


 AVERAGE FORCE                      0.679       TIME AVG. FORCE       0.581    
 LARGEST SCALED RESIDUAL FORCE     -2.750E-03   AT NODE          2   DOF  1
  CORRESPONDING RESIDUAL FORCE     -2.750E-03
 LARGEST INCREMENT OF DISP.         2.815E-04   AT NODE          1   DOF  2
 LARGEST CORRECTION TO DISP.        1.394E-05   AT NODE          2   DOF  1
          DISP.    CORRECTION TOO LARGE COMPARED TO DISP.    INCREMENT
 
	SYMMETRIC DIRECT SPARSE SOLVER RUNNING ON
 	1 HOST:        1 MPI RANK  x 1 THREAD
 	NUMBER OF EQUATIONS:     18
 	NUMBER OF RHS:           1
 	NUMBER OF FLOPS:         2.109e+03

     CHECK POINT  START OF SOLVER     

     CHECK POINT  END OF SOLVER       

       ELAPSED USER TIME (SEC)      =   0.0000    
       ELAPSED SYSTEM TIME (SEC)    =   0.0000    
       ELAPSED TOTAL CPU TIME (SEC) =   0.0000    
       ELAPSED WALLCLOCK TIME (SEC) =            0
 

 ***WARNING: THE SYSTEM MATRIX HAS 1 NEGATIVE EIGENVALUES.
             EXPLANATIONS ARE SUGGESTED AFTER THE FIRST OCCURRENCE OF THIS MESSAGE.

               CONVERGENCE CHECKS FOR EQUILIBRIUM ITERATION     6


 AVERAGE FORCE                      0.678       TIME AVG. FORCE       0.581    
 LARGEST SCALED RESIDUAL FORCE      2.408E-03   AT NODE          2   DOF  1
  CORRESPONDING RESIDUAL FORCE      2.408E-03
 LARGEST INCREMENT OF DISP.         2.815E-04   AT NODE          1   DOF  2
 LARGEST CORRECTION TO DISP.       -7.756E-06   AT NODE          2   DOF  1
          DISP.    CORRECTION TOO LARGE COMPARED TO DISP.    INCREMENT
 
	SYMMETRIC DIRECT SPARSE SOLVER RUNNING ON
 	1 HOST:        1 MPI RANK  x 1 THREAD
 	NUMBER OF EQUATIONS:     18
 	NUMBER OF RHS:           1
 	NUMBER OF FLOPS:         2.109e+03

     CHECK POINT  START OF SOLVER     

     CHECK POINT  END OF SOLVER       

       ELAPSED USER TIME (SEC)      =  0.10000    
       ELAPSED SYSTEM TIME (SEC)    =   0.0000    
       ELAPSED TOTAL CPU TIME (SEC) =  0.10000    
       ELAPSED WALLCLOCK TIME (SEC) =            0
 

 ***WARNING: THE SYSTEM MATRIX HAS 1 NEGATIVE EIGENVALUES.
             EXPLANATIONS ARE SUGGESTED AFTER THE FIRST OCCURRENCE OF THIS MESSAGE.

               CONVERGENCE CHECKS FOR EQUILIBRIUM ITERATION     7


 AVERAGE FORCE                      0.679       TIME AVG. FORCE       0.581    
 LARGEST SCALED RESIDUAL FORCE     -2.410E-03   AT NODE          2   DOF  1
  CORRESPONDING RESIDUAL FORCE     -2.410E-03
 LARGEST INCREMENT OF DISP.         2.815E-04   AT NODE          1   DOF  2
 LARGEST CORRECTION TO DISP.        7.831E-05   AT NODE          4   DOF  1
          DISP.    CORRECTION TOO LARGE COMPARED TO DISP.    INCREMENT
 
	SYMMETRIC DIRECT SPARSE SOLVER RUNNING ON
 	1 HOST:        1 MPI RANK  x 1 THREAD
 	NUMBER OF EQUATIONS:     18
 	NUMBER OF RHS:           1
 	NUMBER OF FLOPS:         2.109e+03

     CHECK POINT  START OF SOLVER     

     CHECK POINT  END OF SOLVER       

       ELAPSED USER TIME (SEC)      =   0.0000    
       ELAPSED SYSTEM TIME (SEC)    =   0.0000    
       ELAPSED TOTAL CPU TIME (SEC) =   0.0000    
       ELAPSED WALLCLOCK TIME (SEC) =            0
 

 ***WARNING: THE SYSTEM MATRIX HAS 1 NEGATIVE EIGENVALUES.
             EXPLANATIONS ARE SUGGESTED AFTER THE FIRST OCCURRENCE OF THIS MESSAGE.

               CONVERGENCE CHECKS FOR EQUILIBRIUM ITERATION     8


 AVERAGE FORCE                      0.678       TIME AVG. FORCE       0.581    
 LARGEST SCALED RESIDUAL FORCE      2.063E-03   AT NODE          2   DOF  1
  CORRESPONDING RESIDUAL FORCE      2.063E-03
 LARGEST INCREMENT OF DISP.         2.815E-04   AT NODE          1   DOF  2
 LARGEST CORRECTION TO DISP.       -3.731E-05   AT NODE          4   DOF  1
          DISP.    CORRECTION TOO LARGE COMPARED TO DISP.    INCREMENT
 
	SYMMETRIC DIRECT SPARSE SOLVER RUNNING ON
 	1 HOST:        1 MPI RANK  x 1 THREAD
 	NUMBER OF EQUATIONS:     18
 	NUMBER OF RHS:           1
 	NUMBER OF FLOPS:         2.109e+03

     CHECK POINT  START OF SOLVER     

     CHECK POINT  END OF SOLVER       

       ELAPSED USER TIME (SEC)      =   0.0000    
       ELAPSED SYSTEM TIME (SEC)    =   0.0000    
       ELAPSED TOTAL CPU TIME (SEC) =   0.0000    
       ELAPSED WALLCLOCK TIME (SEC) =            0
 

 ***WARNING: THE SYSTEM MATRIX HAS 1 NEGATIVE EIGENVALUES.
             EXPLANATIONS ARE SUGGESTED AFTER THE FIRST OCCURRENCE OF THIS MESSAGE.

               CONVERGENCE CHECKS FOR EQUILIBRIUM ITERATION     9


 AVERAGE FORCE                      0.680       TIME AVG. FORCE       0.581    
 LARGEST SCALED RESIDUAL FORCE     -3.038E-03   AT NODE          2   DOF  1
  CORRESPONDING RESIDUAL FORCE     -3.038E-03
 LARGEST INCREMENT OF DISP.         2.815E-04   AT NODE          1   DOF  2
 LARGEST CORRECTION TO DISP.        1.518E-04   AT NODE          2   DOF  1
          FORCE     EQUILIBRIUM NOT ACHIEVED WITHIN TOLERANCE.
 

 ***NOTE: THE SOLUTION APPEARS TO BE DIVERGING. CONVERGENCE IS JUDGED UNLIKELY.


  INCREMENT    99 STARTS. ATTEMPT NUMBER  2, TIME INCREMENT  7.037E-04
 
	SYMMETRIC DIRECT SPARSE SOLVER RUNNING ON
 	1 HOST:        1 MPI RANK  x 1 THREAD
 	NUMBER OF EQUATIONS:     18
 	NUMBER OF RHS:           1
 	NUMBER OF FLOPS:         2.109e+03

     CHECK POINT  START OF SOLVER     

     CHECK POINT  END OF SOLVER       

       ELAPSED USER TIME (SEC)      =   0.0000    
       ELAPSED SYSTEM TIME (SEC)    =   0.0000    
       ELAPSED TOTAL CPU TIME (SEC) =   0.0000    
       ELAPSED WALLCLOCK TIME (SEC) =            0
 

 ***WARNING: THE SYSTEM MATRIX HAS 1 NEGATIVE EIGENVALUES.
             EXPLANATIONS ARE SUGGESTED AFTER THE FIRST OCCURRENCE OF THIS MESSAGE.

               CONVERGENCE CHECKS FOR EQUILIBRIUM ITERATION     1


 AVERAGE FORCE                      0.678       TIME AVG. FORCE       0.581    
 LARGEST SCALED RESIDUAL FORCE     -3.223E-04   AT NODE          2   DOF  1
  CORRESPONDING RESIDUAL FORCE     -3.223E-04
 LARGEST INCREMENT OF DISP.         7.037E-05   AT NODE          1   DOF  2
 LARGEST CORRECTION TO DISP.        5.201E-07   AT NODE          2   DOF  1
          THE FORCE     EQUILIBRIUM EQUATIONS HAVE CONVERGED
          TIME INCREMENT MAY NOW INCREASE TO    1.056E-03

 ITERATION SUMMARY FOR THE INCREMENT:   1 TOTAL ITERATIONS, OF WHICH
   0 ARE SEVERE DISCONTINUITY ITERATIONS AND  1 ARE EQUILIBRIUM ITERATIONS.

 TIME INCREMENT COMPLETED  7.037E-04,  FRACTION OF STEP COMPLETED  0.139    
 STEP TIME COMPLETED       0.139    ,  TOTAL TIME COMPLETED        0.139    


  INCREMENT   100 STARTS. ATTEMPT NUMBER  1, TIME INCREMENT  1.056E-03
 
	SYMMETRIC DIRECT SPARSE SOLVER RUNNING ON
 	1 HOST:        1 MPI RANK  x 1 THREAD
 	NUMBER OF EQUATIONS:     18
 	NUMBER OF RHS:           1
 	NUMBER OF FLOPS:         2.109e+03

     CHECK POINT  START OF SOLVER     

     CHECK POINT  END OF SOLVER       

       ELAPSED USER TIME (SEC)      =   0.0000    
       ELAPSED SYSTEM TIME (SEC)    =   0.0000    
       ELAPSED TOTAL CPU TIME (SEC) =   0.0000    
       ELAPSED WALLCLOCK TIME (SEC) =            0
 

 ***WARNING: THE SYSTEM MATRIX HAS 1 NEGATIVE EIGENVALUES.
             EXPLANATIONS ARE SUGGESTED AFTER THE FIRST OCCURRENCE OF THIS MESSAGE.

               CONVERGENCE CHECKS FOR EQUILIBRIUM ITERATION     1


 AVERAGE FORCE                      0.678       TIME AVG. FORCE       0.582    
 LARGEST SCALED RESIDUAL FORCE      2.541E-04   AT NODE          2   DOF  1
  CORRESPONDING RESIDUAL FORCE      2.541E-04
 LARGEST INCREMENT OF DISP.         1.056E-04   AT NODE          1   DOF  2
 LARGEST CORRECTION TO DISP.       -4.890E-07   AT NODE          2   DOF  1
          THE FORCE     EQUILIBRIUM EQUATIONS HAVE CONVERGED
          TIME INCREMENT MAY NOW INCREASE TO    1.583E-03

 ITERATION SUMMARY FOR THE INCREMENT:   1 TOTAL ITERATIONS, OF WHICH
   0 ARE SEVERE DISCONTINUITY ITERATIONS AND  1 ARE EQUILIBRIUM ITERATIONS.

 TIME INCREMENT COMPLETED  1.056E-03,  FRACTION OF STEP COMPLETED  0.140    
 STEP TIME COMPLETED       0.140    ,  TOTAL TIME COMPLETED        0.140    
 

 ***ERROR: TOO MANY INCREMENTS NEEDED TO COMPLETE THE STEP

 ***ERROR: THE ANALYSIS HAS BEEN TERMINATED DUE TO PREVIOUS ERRORS. ALL OUTPUT 
           REQUESTS HAVE BEEN WRITTEN FOR THE LAST CONVERGED INCREMENT.



     ANALYSIS SUMMARY:
     TOTAL OF        100  INCREMENTS
                      20  CUTBACKS IN AUTOMATIC INCREMENTATION
                     331  ITERATIONS INCLUDING CONTACT ITERATIONS IF PRESENT
                     331  PASSES THROUGH THE EQUATION SOLVER OF WHICH 
                     331  INVOLVE MATRIX DECOMPOSITION, INCLUDING
                       0  DECOMPOSITION(S) OF THE MASS MATRIX
                       1  REORDERING OF EQUATIONS TO MINIMIZE WAVEFRONT
                       0  ADDITIONAL RESIDUAL EVALUATIONS FOR LINE SEARCHES
                       0  ADDITIONAL OPERATOR EVALUATIONS FOR LINE SEARCHES
                       4  WARNING MESSAGES DURING USER INPUT PROCESSING
                     147  WARNING MESSAGES DURING ANALYSIS
                       0  ANALYSIS WARNINGS ARE NUMERICAL PROBLEM MESSAGES
                     143  ANALYSIS WARNINGS ARE NEGATIVE EIGENVALUE MESSAGES
                       2  ERROR MESSAGES



     JOB TIME SUMMARY
       USER TIME (SEC)      =      1.9    
       SYSTEM TIME (SEC)    =     0.50    
       TOTAL CPU TIME (SEC) =      2.4    
       WALLCLOCK TIME (SEC) =            6
       MEMORY PEAK (GB)     =            0
