 Abaqus/Standard 2023                  DATE 27-May-2024 TIME 16:51:55
 SUMMARY OF JOB INFORMATION:
 STEP  INC ATT SEVERE EQUIL TOTAL  TOTAL      STEP       INC OF       DOF    IF
               DISCON ITERS ITERS  TIME/    TIME/LPF    TIME/LPF    MONITOR RIKS
               ITERS               FREQ
   1     1   1     0     2     2  1.00e-05   1.00e-05   1.000e-05 
   1     2   1     0     1     1  2.00e-05   2.00e-05   1.000e-05 
   1     3   1     0     1     1  3.50e-05   3.50e-05   1.500e-05 
   1     4   1     0     1     1  5.75e-05   5.75e-05   2.250e-05 
   1     5   1     0     1     1  9.13e-05   9.13e-05   3.375e-05 
   1     6   1     0     1     1  0.000142   0.000142   5.063e-05 
   1     7   1     0     1     1  0.000218   0.000218   7.594e-05 
   1     8   1     0     1     1  0.000332   0.000332   0.0001139 
   1     9   1     0     1     1  0.000503   0.000503   0.0001709 
   1    10   1     0     1     1  0.000759   0.000759   0.0002563 
   1    11   1     0     1     1  0.00114    0.00114    0.0003844 
   1    12   1     0     1     1  0.00172    0.00172    0.0005767 
   1    13   1     0     3     3  0.00258    0.00258    0.0008650 
   1    14   1     0    15    15  0.00388    0.00388    0.001297  
   1    15   1     0     1     1  0.00486    0.00486    0.0009731 
   1    16   1     0     1     1  0.00583    0.00583    0.0009731 
   1    17   1     0     1     1  0.00729    0.00729    0.001460  
   1    18   1     0     1     1  0.00948    0.00948    0.002189  
   1    19   1     0     1     1  0.0128     0.0128     0.003284  
   1    20   1U    0     4     4  0.0128     0.0128     0.004926  
   1    20   2     0     1     1  0.0140     0.0140     0.001232  
   1    21   1     0     6     6  0.0158     0.0158     0.001847  
   1    22   1     0     5     5  0.0177     0.0177     0.001847  
   1    23   1     0     3     3  0.0195     0.0195     0.001847  
   1    24   1     0     8     8  0.0214     0.0214     0.001847  
   1    25   1     0     4     4  0.0232     0.0232     0.001847  
   1    26   1     0     4     4  0.0251     0.0251     0.001847  
   1    27   1U    0     4     4  0.0251     0.0251     0.002771  
   1    27   2     0     1     1  0.0258     0.0258     0.0006928 
   1    28   1     0     1     1  0.0268     0.0268     0.001039  
   1    29   1     0     4     4  0.0284     0.0284     0.001559  
   1    30   1     0    11    11  0.0307     0.0307     0.002338  
   1    31   1     0     3     3  0.0325     0.0325     0.001754  
   1    32   1     0     6     6  0.0342     0.0342     0.001754  
   1    33   1     0     2     2  0.0360     0.0360     0.001754  
   1    34   1     0     3     3  0.0377     0.0377     0.001754  
   1    35   1U    0     4     4  0.0377     0.0377     0.002630  
   1    35   2     0     1     1  0.0384     0.0384     0.0006576 
   1    36   1     0     2     2  0.0394     0.0394     0.0009864 
   1    37   1     0     1     1  0.0408     0.0408     0.001480  
   1    38   1     0     1     1  0.0431     0.0431     0.002219  
   1    39   1U    0     4     4  0.0431     0.0431     0.003329  
   1    39   2     0     1     1  0.0439     0.0439     0.0008323 
   1    40   1     0     2     2  0.0451     0.0451     0.001248  
   1    41   1     0     1     1  0.0470     0.0470     0.001873  
   1    42   1U    0     4     4  0.0470     0.0470     0.002809  
   1    42   2     0     1     1  0.0477     0.0477     0.0007022 
   1    43   1     0     1     1  0.0488     0.0488     0.001053  
   1    44   1     0     1     1  0.0504     0.0504     0.001580  
   1    45   1     0     1     1  0.0527     0.0527     0.002370  
   1    46   1U    0     4     4  0.0527     0.0527     0.003555  
   1    46   2     0     1     1  0.0536     0.0536     0.0008887 
   1    47   1     0     1     1  0.0549     0.0549     0.001333  
   1    48   1     0     1     1  0.0569     0.0569     0.002000  
   1    49   1U    0     4     4  0.0569     0.0569     0.002999  
   1    49   2     0     1     1  0.0577     0.0577     0.0007499 
   1    50   1     0     1     1  0.0588     0.0588     0.001125  
   1    51   1     0     2     2  0.0605     0.0605     0.001687  
   1    52   1     0    10    10  0.0630     0.0630     0.002531  
   1    53   1     0    13    13  0.0656     0.0656     0.002531  
   1    54   1     0     3     3  0.0675     0.0675     0.001898  
   1    55   1     0     4     4  0.0694     0.0694     0.001898  
   1    56   1U    0     4     4  0.0694     0.0694     0.002847  
   1    56   2     0     1     1  0.0701     0.0701     0.0007118 
   1    57   1     0     2     2  0.0711     0.0711     0.001068  
   1    58   1     0     1     1  0.0727     0.0727     0.001602  
   1    59   1     0     3     3  0.0751     0.0751     0.002402  
   1    60   1     0     2     2  0.0788     0.0788     0.003603  
   1    61   1U    0     4     4  0.0788     0.0788     0.005405  
   1    61   2     0     2     2  0.0801     0.0801     0.001351  
   1    62   1     0     5     5  0.0821     0.0821     0.002027  
   1    63   1     0     1     1  0.0842     0.0842     0.002027  
   1    64   1     0     1     1  0.0862     0.0862     0.002027  
   1    65   1     0     1     1  0.0892     0.0892     0.003040  
   1    66   1U    0     4     4  0.0892     0.0892     0.004561  
   1    66   2     0     1     1  0.0904     0.0904     0.001140  
   1    67   1     0     2     2  0.0921     0.0921     0.001710  
   1    68   1     0     2     2  0.0946     0.0946     0.002565  
   1    69   1U    0     4     4  0.0946     0.0946     0.003848  
   1    69   2     0     2     2  0.0956     0.0956     0.0009620 
   1    70   1     0     1     1  0.0970     0.0970     0.001443  
   1    71   1     0     2     2  0.0992     0.0992     0.002165  
   1    72   1U    0     4     4  0.0992     0.0992     0.003247  
   1    72   2     0     1     1  0.100      0.100      0.0008117 
   1    73   1     0     1     1  0.101      0.101      0.001218  
   1    74   1     0     4     4  0.103      0.103      0.001826  
   1    75   1U    0    16    16  0.103      0.103      0.002739  
   1    75   2     0     2     2  0.104      0.104      0.0006849 
   1    76   1     0     1     1  0.105      0.105      0.001027  
   1    77   1     0     1     1  0.106      0.106      0.001541  
   1    78   1     0     1     1  0.109      0.109      0.002311  
   1    79   1U    0     4     4  0.109      0.109      0.003467  
   1    79   2     0     1     1  0.109      0.109      0.0008668 
   1    80   1     0     1     1  0.111      0.111      0.001300  
   1    81   1     0     1     1  0.113      0.113      0.001950  
   1    82   1U    0     5     5  0.113      0.113      0.002925  
   1    82   2     0     1     1  0.113      0.113      0.0007313 
   1    83   1     0     1     1  0.115      0.115      0.001097  
   1    84   1     0     1     1  0.116      0.116      0.001646  
   1    85   1     0     2     2  0.119      0.119      0.002468  
   1    86   1U    0     4     4  0.119      0.119      0.003702  
   1    86   2     0     4     4  0.120      0.120      0.0009256 
   1    87   1     0     1     1  0.121      0.121      0.001388  
   1    88   1     0     4     4  0.123      0.123      0.002083  
   1    89   1U    0    16    16  0.123      0.123      0.003124  
   1    89   2     0     1     1  0.124      0.124      0.0007810 
   1    90   1     0     2     2  0.125      0.125      0.001171  
   1    91   1     0     1     1  0.127      0.127      0.001757  
   1    92   1     0     1     1  0.129      0.129      0.002636  
   1    93   1U    0     4     4  0.129      0.129      0.003954  
   1    93   2     0     1     1  0.130      0.130      0.0009884 
   1    94   1     0     1     1  0.132      0.132      0.001483  
   1    95   1     0     4     4  0.134      0.134      0.002224  
   1    96   1U    0     4     4  0.134      0.134      0.003336  
   1    96   2     0     1     1  0.135      0.135      0.0008340 
   1    97   1     0     1     1  0.136      0.136      0.001251  
   1    98   1     0     1     1  0.138      0.138      0.001876  
   1    99   1U    0     9     9  0.138      0.138      0.002815  
   1    99   2     0     1     1  0.139      0.139      0.0007037 
   1   100   1     0     1     1  0.140      0.140      0.001056  
                          
 THE ANALYSIS HAS NOT BEEN COMPLETED
