 Abaqus/Standard 2023                  DATE 27-May-2024 TIME 16:54:01
 SUMMARY OF JOB INFORMATION:
 STEP  INC ATT SEVERE EQUIL TOTAL  TOTAL      STEP       INC OF       DOF    IF
               DISCON ITERS ITERS  TIME/    TIME/LPF    TIME/LPF    MONITOR RIKS
               ITERS               FREQ
   1     1   1     0     2     2  1.00e-05   1.00e-05   1.000e-05 
   1     2   1     0     1     1  2.00e-05   2.00e-05   1.000e-05 
   1     3   1     0     1     1  3.50e-05   3.50e-05   1.500e-05 
   1     4   1     0     1     1  5.75e-05   5.75e-05   2.250e-05 
   1     5   1     0     1     1  9.13e-05   9.13e-05   3.375e-05 
   1     6   1     0     1     1  0.000142   0.000142   5.063e-05 
   1     7   1     0     1     1  0.000218   0.000218   7.594e-05 
   1     8   1     0     1     1  0.000332   0.000332   0.0001139 
   1     9   1     0     1     1  0.000503   0.000503   0.0001709 
   1    10   1     0     1     1  0.000759   0.000759   0.0002563 
   1    11   1     0     1     1  0.00114    0.00114    0.0003844 
   1    12   1     0     1     1  0.00172    0.00172    0.0005767 
   1    13   1     0     3     3  0.00258    0.00258    0.0008650 
   1    14   1U    0    16    16  0.00258    0.00258    0.001297  
   1    14   2     0     3     3  0.00291    0.00291    0.0003244 
   1    15   1     0     1     1  0.00340    0.00340    0.0004865 
   1    16   1     0     1     1  0.00413    0.00413    0.0007298 
   1    17   1     0     1     1  0.00522    0.00522    0.001095  
   1    18   1     0    10    10  0.00686    0.00686    0.001642  
   1    19   1     0    10    10  0.00850    0.00850    0.001642  
   1    20   1     0     6     6  0.0101     0.0101     0.001642  
   1    21   1     0     1     1  0.0118     0.0118     0.001642  
   1    22   1     0     7     7  0.0134     0.0134     0.001642  
   1    23   1     0     5     5  0.0151     0.0151     0.001642  
   1    24   1     0     7     7  0.0167     0.0167     0.001642  
   1    25   1     0     4     4  0.0184     0.0184     0.001642  
   1    26   1     0     1     1  0.0200     0.0200     0.001642  
   1    27   1U    0     4     4  0.0200     0.0200     0.002463  
   1    27   2     0     1     1  0.0206     0.0206     0.0006158 
   1    28   1     0     1     1  0.0215     0.0215     0.0009237 
   1    29   1     0     2     2  0.0229     0.0229     0.001386  
   1    30   1U    0    16    16  0.0229     0.0229     0.002078  
   1    30   2     0     1     1  0.0234     0.0234     0.0005196 
   1    31   1     0     1     1  0.0242     0.0242     0.0007794 
   1    32   1     0     2     2  0.0254     0.0254     0.001169  
   1    33   1     0     5     5  0.0271     0.0271     0.001754  
   1    34   1     0     3     3  0.0289     0.0289     0.001754  
   1    35   1     0     7     7  0.0307     0.0307     0.001754  
   1    36   1     0     3     3  0.0324     0.0324     0.001754  
   1    37   1     0     7     7  0.0342     0.0342     0.001754  
   1    38   1     0     3     3  0.0359     0.0359     0.001754  
   1    39   1     0     7     7  0.0377     0.0377     0.001754  
   1    40   1     0     2     2  0.0394     0.0394     0.001754  
   1    41   1     0     1     1  0.0412     0.0412     0.001754  
   1    42   1U    0     4     4  0.0412     0.0412     0.002630  
   1    42   2     0     1     1  0.0418     0.0418     0.0006576 
   1    43   1     0     1     1  0.0428     0.0428     0.0009864 
   1    44   1     0     1     1  0.0443     0.0443     0.001480  
   1    45   1     0     1     1  0.0465     0.0465     0.002219  
   1    46   1U    0     4     4  0.0465     0.0465     0.003329  
   1    46   2     0     1     1  0.0473     0.0473     0.0008323 
   1    47   1     0     2     2  0.0486     0.0486     0.001248  
   1    48   1     0     1     1  0.0505     0.0505     0.001873  
   1    49   1U    0     4     4  0.0505     0.0505     0.002809  
   1    49   2     0     1     1  0.0512     0.0512     0.0007022 
   1    50   1     0     1     1  0.0522     0.0522     0.001053  
   1    51   1     0     1     1  0.0538     0.0538     0.001580  
   1    52   1     0     1     1  0.0562     0.0562     0.002370  
   1    53   1U    0     4     4  0.0562     0.0562     0.003555  
   1    53   2     0     1     1  0.0571     0.0571     0.0008887 
   1    54   1     0     2     2  0.0584     0.0584     0.001333  
   1    55   1     0     1     1  0.0604     0.0604     0.002000  
   1    56   1U    0     4     4  0.0604     0.0604     0.002999  
   1    56   2     0     1     1  0.0611     0.0611     0.0007499 
   1    57   1     0     1     1  0.0623     0.0623     0.001125  
   1    58   1     0     1     1  0.0640     0.0640     0.001687  
   1    59   1     0     1     1  0.0665     0.0665     0.002531  
   1    60   1U    0     4     4  0.0665     0.0665     0.003796  
   1    60   2     0     1     1  0.0674     0.0674     0.0009491 
   1    61   1     0     7     7  0.0689     0.0689     0.001424  
   1    62   1     0     2     2  0.0703     0.0703     0.001424  
   1    63   1     0     1     1  0.0717     0.0717     0.001424  
   1    64   1     0     3     3  0.0738     0.0738     0.002135  
   1    65   1U    0     4     4  0.0738     0.0738     0.003203  
   1    65   2     0     1     1  0.0746     0.0746     0.0008008 
   1    66   1     0     6     6  0.0758     0.0758     0.001201  
   1    67   1     0     1     1  0.0770     0.0770     0.001201  
   1    68   1     0     1     1  0.0782     0.0782     0.001201  
   1    69   1     0     5     5  0.0801     0.0801     0.001802  
   1    70   1     0     1     1  0.0819     0.0819     0.001802  
   1    71   1     0     1     1  0.0837     0.0837     0.001802  
   1    72   1     0     1     1  0.0864     0.0864     0.002703  
   1    73   1U    0     4     4  0.0864     0.0864     0.004054  
   1    73   2     0     1     1  0.0874     0.0874     0.001013  
   1    74   1     0     7     7  0.0889     0.0889     0.001520  
   1    75   1     0     2     2  0.0904     0.0904     0.001520  
   1    76   1     0     1     1  0.0919     0.0919     0.001520  
   1    77   1U    0     6     6  0.0919     0.0919     0.002280  
   1    77   2     0     2     2  0.0925     0.0925     0.0005701 
   1    78   1     0     2     2  0.0934     0.0934     0.0008551 
   1    79   1     0     1     1  0.0946     0.0946     0.001283  
   1    80   1     0     1     1  0.0966     0.0966     0.001924  
   1    81   1U    0     4     4  0.0966     0.0966     0.002886  
   1    81   2     0     1     1  0.0973     0.0973     0.0007215 
   1    82   1     0     1     1  0.0984     0.0984     0.001082  
   1    83   1     0     4     4  0.100      0.100      0.001623  
   1    84   1     0     4     4  0.102      0.102      0.002435  
   1    85   1U    0     4     4  0.102      0.102      0.003653  
   1    85   2     0     4     4  0.103      0.103      0.0009132 
   1    86   1     0     1     1  0.105      0.105      0.001370  
   1    87   1     0     8     8  0.107      0.107      0.002055  
   1    88   1     0     1     1  0.109      0.109      0.002055  
   1    89   1     0     2     2  0.111      0.111      0.002055  
   1    90   1U    0     4     4  0.111      0.111      0.003082  
   1    90   2     0     1     1  0.112      0.112      0.0007705 
   1    91   1     0     1     1  0.113      0.113      0.001156  
   1    92   1     0     1     1  0.115      0.115      0.001734  
   1    93   1U    0    15    15  0.115      0.115      0.002600  
   1    93   2     0     1     1  0.115      0.115      0.0006501 
   1    94   1     0     2     2  0.116      0.116      0.0009751 
   1    95   1     0     1     1  0.118      0.118      0.001463  
   1    96   1     0     1     1  0.120      0.120      0.002194  
   1    97   1U    0     4     4  0.120      0.120      0.003291  
   1    97   2     0     1     1  0.121      0.121      0.0008228 
   1    98   1     0     2     2  0.122      0.122      0.001234  
   1    99   1     0     1     1  0.124      0.124      0.001851  
   1   100   1     0     8     8  0.126      0.126      0.002777  
                          
 THE ANALYSIS HAS NOT BEEN COMPLETED
