 Abaqus/Standard 2023                  DATE 27-May-2024 TIME 16:52:28
 SUMMARY OF JOB INFORMATION:
 STEP  INC ATT SEVERE EQUIL TOTAL  TOTAL      STEP       INC OF       DOF    IF
               DISCON ITERS ITERS  TIME/    TIME/LPF    TIME/LPF    MONITOR RIKS
               ITERS               FREQ
   1     1   1     0     2     2  1.00e-05   1.00e-05   1.000e-05 
   1     2   1     0     1     1  2.00e-05   2.00e-05   1.000e-05 
   1     3   1     0     1     1  3.50e-05   3.50e-05   1.500e-05 
   1     4   1     0     1     1  5.75e-05   5.75e-05   2.250e-05 
   1     5   1     0     1     1  9.13e-05   9.13e-05   3.375e-05 
   1     6   1     0     1     1  0.000142   0.000142   5.063e-05 
   1     7   1     0     1     1  0.000218   0.000218   7.594e-05 
   1     8   1     0     1     1  0.000332   0.000332   0.0001139 
   1     9   1     0     1     1  0.000503   0.000503   0.0001709 
   1    10   1     0     1     1  0.000759   0.000759   0.0002563 
   1    11   1     0     1     1  0.00114    0.00114    0.0003844 
   1    12   1     0     1     1  0.00172    0.00172    0.0005767 
   1    13   1     0     3     3  0.00258    0.00258    0.0008650 
   1    14   1     0    12    12  0.00388    0.00388    0.001297  
   1    15   1     0     3     3  0.00486    0.00486    0.0009731 
   1    16   1     0     1     1  0.00583    0.00583    0.0009731 
   1    17   1     0     4     4  0.00729    0.00729    0.001460  
   1    18   1U    0    16    16  0.00729    0.00729    0.002189  
   1    18   2     0     1     1  0.00784    0.00784    0.0005474 
   1    19   1     0     1     1  0.00866    0.00866    0.0008211 
   1    20   1     0     3     3  0.00989    0.00989    0.001232  
   1    21   1     0     6     6  0.0117     0.0117     0.001847  
   1    22   1     0     2     2  0.0136     0.0136     0.001847  
   1    23   1     0     3     3  0.0154     0.0154     0.001847  
   1    24   1U    0     4     4  0.0154     0.0154     0.002771  
   1    24   2     0     1     1  0.0161     0.0161     0.0006928 
   1    25   1     0     2     2  0.0172     0.0172     0.001039  
   1    26   1     0     1     1  0.0187     0.0187     0.001559  
   1    27   1     0    10    10  0.0211     0.0211     0.002338  
   1    28   1     0     1     1  0.0234     0.0234     0.002338  
   1    29   1     0    10    10  0.0257     0.0257     0.002338  
   1    30   1U    0    16    16  0.0257     0.0257     0.002338  
   1    30   2     0     1     1  0.0263     0.0263     0.0005845 
   1    31   1     0     1     1  0.0269     0.0269     0.0005845 
   1    32   1     0     2     2  0.0278     0.0278     0.0008768 
   1    33   1     0     1     1  0.0291     0.0291     0.001315  
   1    34   1     0     1     1  0.0311     0.0311     0.001973  
   1    35   1U    0     4     4  0.0311     0.0311     0.002959  
   1    35   2     0     1     1  0.0318     0.0318     0.0007398 
   1    36   1     0     1     1  0.0329     0.0329     0.001110  
   1    37   1     0     3     3  0.0346     0.0346     0.001665  
   1    38   1     0     1     1  0.0371     0.0371     0.002497  
   1    39   1U    0     4     4  0.0371     0.0371     0.003745  
   1    39   2     0     1     1  0.0380     0.0380     0.0009363 
   1    40   1     0     1     1  0.0394     0.0394     0.001404  
   1    41   1     0     8     8  0.0415     0.0415     0.002107  
   1    42   1     0     5     5  0.0436     0.0436     0.002107  
   1    43   1     0     1     1  0.0457     0.0457     0.002107  
   1    44   1     0     6     6  0.0478     0.0478     0.002107  
   1    45   1     0     5     5  0.0500     0.0500     0.002107  
   1    46   1     0     1     1  0.0521     0.0521     0.002107  
   1    47   1     0     6     6  0.0542     0.0542     0.002107  
   1    48   1     0     4     4  0.0563     0.0563     0.002107  
   1    49   1     0     4     4  0.0584     0.0584     0.002107  
   1    50   1U    0     4     4  0.0584     0.0584     0.003160  
   1    50   2     0     1     1  0.0592     0.0592     0.0007900 
   1    51   1     0     1     1  0.0604     0.0604     0.001185  
   1    52   1     0     3     3  0.0621     0.0621     0.001777  
   1    53   1     0     6     6  0.0648     0.0648     0.002666  
   1    54   1     0     1     1  0.0675     0.0675     0.002666  
   1    55   1     0     1     1  0.0701     0.0701     0.002666  
   1    56   1U    0     4     4  0.0701     0.0701     0.003999  
   1    56   2     0     1     1  0.0711     0.0711     0.0009998 
   1    57   1     0     2     2  0.0726     0.0726     0.001500  
   1    58   1     0     5     5  0.0749     0.0749     0.002250  
   1    59   1     0     1     1  0.0771     0.0771     0.002250  
   1    60   1     0     6     6  0.0794     0.0794     0.002250  
   1    61   1     0     4     4  0.0816     0.0816     0.002250  
   1    62   1     0     4     4  0.0839     0.0839     0.002250  
   1    63   1U    0     4     4  0.0839     0.0839     0.003374  
   1    63   2     0     1     1  0.0847     0.0847     0.0008436 
   1    64   1     0     1     1  0.0860     0.0860     0.001265  
   1    65   1     0     3     3  0.0879     0.0879     0.001898  
   1    66   1     0     5     5  0.0907     0.0907     0.002847  
   1    67   1     0    16    16  0.0936     0.0936     0.002847  
   1    68   1     0     4     4  0.0957     0.0957     0.002135  
   1    69   1     0     2     2  0.0979     0.0979     0.002135  
   1    70   1U    0     4     4  0.0979     0.0979     0.003203  
   1    70   2     0     1     1  0.0987     0.0987     0.0008008 
   1    71   1     0     1     1  0.0999     0.0999     0.001201  
   1    72   1     0     3     3  0.102      0.102      0.001802  
   1    73   1     0     1     1  0.104      0.104      0.002703  
   1    74   1U    0     4     4  0.104      0.104      0.004054  
   1    74   2     0     1     1  0.105      0.105      0.001013  
   1    75   1     0     2     2  0.107      0.107      0.001520  
   1    76   1     0     1     1  0.109      0.109      0.002280  
   1    77   1U    0     4     4  0.109      0.109      0.003420  
   1    77   2     0     1     1  0.110      0.110      0.0008551 
   1    78   1     0     1     1  0.111      0.111      0.001283  
   1    79   1     0     1     1  0.113      0.113      0.001924  
   1    80   1     0     5     5  0.116      0.116      0.002886  
   1    81   1     0     1     1  0.119      0.119      0.002886  
   1    82   1     0     7     7  0.122      0.122      0.002886  
   1    83   1     0     1     1  0.125      0.125      0.002886  
   1    84   1     0     7     7  0.128      0.128      0.002886  
   1    85   1     0     1     1  0.131      0.131      0.002886  
   1    86   1     0     5     5  0.133      0.133      0.002886  
   1    87   1     0     1     1  0.136      0.136      0.002886  
   1    88   1     0     5     5  0.139      0.139      0.002886  
   1    89   1     0     1     1  0.142      0.142      0.002886  
   1    90   1     0     4     4  0.145      0.145      0.002886  
   1    91   1U    0     4     4  0.145      0.145      0.004329  
   1    91   2     0     1     1  0.146      0.146      0.001082  
   1    92   1     0     2     2  0.148      0.148      0.001623  
   1    93   1     0     1     1  0.150      0.150      0.002435  
   1    94   1U    0     4     4  0.150      0.150      0.003653  
   1    94   2     0     1     1  0.151      0.151      0.0009132 
   1    95   1     0     1     1  0.152      0.152      0.001370  
   1    96   1     0     1     1  0.154      0.154      0.002055  
   1    97   1     0     2     2  0.158      0.158      0.003082  
   1    98   1U    0     4     4  0.158      0.158      0.004623  
   1    98   2     0     1     1  0.159      0.159      0.001156  
   1    99   1     0     2     2  0.160      0.160      0.001734  
   1   100   1     0     1     1  0.163      0.163      0.002600  
                          
 THE ANALYSIS HAS NOT BEEN COMPLETED
