 Abaqus/Standard 2023                  DATE 27-May-2024 TIME 16:52:32
 SUMMARY OF JOB INFORMATION:
 STEP  INC ATT SEVERE EQUIL TOTAL  TOTAL      STEP       INC OF       DOF    IF
               DISCON ITERS ITERS  TIME/    TIME/LPF    TIME/LPF    MONITOR RIKS
               ITERS               FREQ
   1     1   1     0     2     2  1.00e-05   1.00e-05   1.000e-05 
   1     2   1     0     1     1  2.00e-05   2.00e-05   1.000e-05 
   1     3   1     0     1     1  3.50e-05   3.50e-05   1.500e-05 
   1     4   1     0     1     1  5.75e-05   5.75e-05   2.250e-05 
   1     5   1     0     1     1  9.13e-05   9.13e-05   3.375e-05 
   1     6   1     0     1     1  0.000142   0.000142   5.063e-05 
   1     7   1     0     1     1  0.000218   0.000218   7.594e-05 
   1     8   1     0     1     1  0.000332   0.000332   0.0001139 
   1     9   1     0     1     1  0.000503   0.000503   0.0001709 
   1    10   1     0     1     1  0.000759   0.000759   0.0002563 
   1    11   1     0     1     1  0.00114    0.00114    0.0003844 
   1    12   1     0     1     1  0.00172    0.00172    0.0005767 
   1    13   1     0     2     2  0.00258    0.00258    0.0008650 
   1    14   1     0     2     2  0.00388    0.00388    0.001297  
   1    15   1     0     1     1  0.00583    0.00583    0.001946  
   1    16   1     0     1     1  0.00875    0.00875    0.002919  
   1    17   1     0     1     1  0.0131     0.0131     0.004379  
   1    18   1     0     1     1  0.0197     0.0197     0.006568  
   1    19   1     0     1     1  0.0295     0.0295     0.009853  
   1    20   1     0     1     1  0.0443     0.0443     0.01478   
   1    21   1     0     1     1  0.0665     0.0665     0.02217   
   1    22   1     0     1     1  0.0997     0.0997     0.03325   
   1    23   1     0     1     1  0.150      0.150      0.04988   
   1    24   1     0     1     1  0.224      0.224      0.07482   
   1    25   1     0     1     1  0.324      0.324      0.1000    
   1    26   1     0     1     1  0.424      0.424      0.1000    
   1    27   1     0     1     1  0.524      0.524      0.1000    
   1    28   1     0     1     1  0.624      0.624      0.1000    
   1    29   1     0     1     1  0.724      0.724      0.1000    
   1    30   1     0     1     1  0.824      0.824      0.1000    
   1    31   1     0     1     1  0.924      0.924      0.1000    
   1    32   1     0     1     1  1.00       1.00       0.07556   
                          
 THE ANALYSIS HAS COMPLETED SUCCESSFULLY
