 Abaqus/Standard 2023                  DATE 27-May-2024 TIME 16:52:34
 SUMMARY OF JOB INFORMATION:
 STEP  INC ATT SEVERE EQUIL TOTAL  TOTAL      STEP       INC OF       DOF    IF
               DISCON ITERS ITERS  TIME/    TIME/LPF    TIME/LPF    MONITOR RIKS
               ITERS               FREQ
   1     1   1     0     2     2  1.00e-05   1.00e-05   1.000e-05 
   1     2   1     0     1     1  2.00e-05   2.00e-05   1.000e-05 
   1     3   1     0     1     1  3.50e-05   3.50e-05   1.500e-05 
   1     4   1     0     1     1  5.75e-05   5.75e-05   2.250e-05 
   1     5   1     0     1     1  9.13e-05   9.13e-05   3.375e-05 
   1     6   1     0     1     1  0.000142   0.000142   5.063e-05 
   1     7   1     0     1     1  0.000218   0.000218   7.594e-05 
   1     8   1     0     1     1  0.000332   0.000332   0.0001139 
   1     9   1     0     1     1  0.000503   0.000503   0.0001709 
   1    10   1     0     1     1  0.000759   0.000759   0.0002563 
   1    11   1     0     1     1  0.00114    0.00114    0.0003844 
   1    12   1     0     4     4  0.00172    0.00172    0.0005767 
   1    13   1U    0     9     9  0.00172    0.00172    0.0008650 
   1    13   2     0     6     6  0.00215    0.00215    0.0004325 
   1    14   1     0     2     2  0.00258    0.00258    0.0004325 
   1    15   1     0     2     2  0.00302    0.00302    0.0004325 
   1    16   1     0     3     3  0.00367    0.00367    0.0006487 
   1    17   1     0     1     1  0.00464    0.00464    0.0009731 
   1    18   1U    0     4     4  0.00464    0.00464    0.001460  
   1    18   2     0     1     1  0.00500    0.00500    0.0003649 
   1    19   1     0     1     1  0.00555    0.00555    0.0005474 
   1    20   1     0     2     2  0.00637    0.00637    0.0008211 
   1    21   1U    0     4     4  0.00637    0.00637    0.001232  
   1    21   2     0     1     1  0.00668    0.00668    0.0003079 
   1    22   1     0     2     2  0.00714    0.00714    0.0004618 
   1    23   1     0     1     1  0.00784    0.00784    0.0006928 
   1    24   1U    0     4     4  0.00784    0.00784    0.001039  
   1    24   2     0     1     1  0.00809    0.00809    0.0002598 
   1    25   1     0     2     2  0.00848    0.00848    0.0003897 
   1    26   1     0     1     1  0.00907    0.00907    0.0005845 
   1    27   1     0     1     1  0.00995    0.00995    0.0008768 
   1    28   1U    0     4     4  0.00995    0.00995    0.001315  
   1    28   2     0     1     1  0.0103     0.0103     0.0003288 
   1    29   1     0     2     2  0.0108     0.0108     0.0004932 
   1    30   1     0     1     1  0.0115     0.0115     0.0007398 
   1    31   1U    0     4     4  0.0115     0.0115     0.001110  
   1    31   2     0     1     1  0.0118     0.0118     0.0002774 
   1    32   1     0     1     1  0.0122     0.0122     0.0004161 
   1    33   1     0     3     3  0.0128     0.0128     0.0006242 
   1    34   1     0     5     5  0.0138     0.0138     0.0009363 
   1    35   1     0    10    10  0.0147     0.0147     0.0009363 
   1    36   1     0     4     4  0.0156     0.0156     0.0009363 
   1    37   1     0     4     4  0.0166     0.0166     0.0009363 
   1    38   1U    0     4     4  0.0166     0.0166     0.001404  
   1    38   2     0     1     1  0.0169     0.0169     0.0003511 
   1    39   1     0     2     2  0.0174     0.0174     0.0005267 
   1    40   1     0     1     1  0.0182     0.0182     0.0007900 
   1    41   1U    0     4     4  0.0182     0.0182     0.001185  
   1    41   2     0     1     1  0.0185     0.0185     0.0002962 
   1    42   1     0     1     1  0.0190     0.0190     0.0004444 
   1    43   1     0     3     3  0.0196     0.0196     0.0006666 
   1    44   1     0     6     6  0.0206     0.0206     0.0009998 
   1    45   1     0     1     1  0.0216     0.0216     0.0009998 
   1    46   1     0    10    10  0.0226     0.0226     0.0009998 
   1    47   1     0     8     8  0.0236     0.0236     0.0009998 
   1    48   1     0     5     5  0.0246     0.0246     0.0009998 
   1    49   1     0     6     6  0.0256     0.0256     0.0009998 
   1    50   1     0     1     1  0.0266     0.0266     0.0009998 
   1    51   1     0     6     6  0.0276     0.0276     0.0009998 
   1    52   1     0     7     7  0.0286     0.0286     0.0009998 
   1    53   1     0     6     6  0.0296     0.0296     0.0009998 
   1    54   1     0     1     1  0.0306     0.0306     0.0009998 
   1    55   1     0     4     4  0.0316     0.0316     0.0009998 
   1    56   1U    0     4     4  0.0316     0.0316     0.001500  
   1    56   2     0     2     2  0.0320     0.0320     0.0003749 
   1    57   1     0     1     1  0.0326     0.0326     0.0005624 
   1    58   1     0     1     1  0.0334     0.0334     0.0008436 
   1    59   1U    0     4     4  0.0334     0.0334     0.001265  
   1    59   2     0     1     1  0.0337     0.0337     0.0003164 
   1    60   1     0     2     2  0.0342     0.0342     0.0004745 
   1    61   1     0     1     1  0.0349     0.0349     0.0007118 
   1    62   1     0     2     2  0.0360     0.0360     0.001068  
   1    63   1     0     1     1  0.0376     0.0376     0.001602  
   1    64   1U    0     4     4  0.0376     0.0376     0.002402  
   1    64   2     0     1     1  0.0382     0.0382     0.0006006 
   1    65   1     0     1     1  0.0391     0.0391     0.0009009 
   1    66   1U    0     4     4  0.0391     0.0391     0.001351  
   1    66   2     0     1     1  0.0394     0.0394     0.0003378 
   1    67   1     0     1     1  0.0399     0.0399     0.0005067 
   1    68   1     0     1     1  0.0407     0.0407     0.0007601 
   1    69   1     0     1     1  0.0418     0.0418     0.001140  
   1    70   1U    0     4     4  0.0418     0.0418     0.001710  
   1    70   2     0     2     2  0.0423     0.0423     0.0004276 
   1    71   1     0     1     1  0.0429     0.0429     0.0006413 
   1    72   1     0     1     1  0.0439     0.0439     0.0009620 
   1    73   1     0     1     1  0.0453     0.0453     0.001443  
   1    74   1U    0     4     4  0.0453     0.0453     0.002165  
   1    74   2     0     2     2  0.0459     0.0459     0.0005411 
   1    75   1     0     1     1  0.0467     0.0467     0.0008117 
   1    76   1     0     1     1  0.0479     0.0479     0.001218  
   1    77   1U    0     4     4  0.0479     0.0479     0.001826  
   1    77   2     0     1     1  0.0483     0.0483     0.0004566 
   1    78   1     0     1     1  0.0490     0.0490     0.0006849 
   1    79   1     0     1     1  0.0501     0.0501     0.001027  
   1    80   1     0     1     1  0.0516     0.0516     0.001541  
   1    81   1U    0     4     4  0.0516     0.0516     0.002311  
   1    81   2     0     2     2  0.0522     0.0522     0.0005779 
   1    82   1     0     1     1  0.0530     0.0530     0.0008668 
   1    83   1     0     1     1  0.0543     0.0543     0.001300  
   1    84   1U    0     4     4  0.0543     0.0543     0.001950  
   1    84   2     0     1     1  0.0548     0.0548     0.0004876 
   1    85   1     0     1     1  0.0556     0.0556     0.0007313 
   1    86   1     0     6     6  0.0567     0.0567     0.001097  
   1    87   1     0     6     6  0.0578     0.0578     0.001097  
   1    88   1     0     4     4  0.0589     0.0589     0.001097  
   1    89   1     0     4     4  0.0599     0.0599     0.001097  
   1    90   1U    0     4     4  0.0599     0.0599     0.001646  
   1    90   2     0     1     1  0.0604     0.0604     0.0004114 
   1    91   1     0     2     2  0.0610     0.0610     0.0006171 
   1    92   1     0     1     1  0.0619     0.0619     0.0009256 
   1    93   1U    0     4     4  0.0619     0.0619     0.001388  
   1    93   2     0     1     1  0.0622     0.0622     0.0003471 
   1    94   1     0     1     1  0.0628     0.0628     0.0005207 
   1    95   1     0     2     2  0.0636     0.0636     0.0007810 
   1    96   1     0     5     5  0.0647     0.0647     0.001171  
   1    97   1     0     3     3  0.0659     0.0659     0.001171  
   1    98   1     0    11    11  0.0671     0.0671     0.001171  
   1    99   1     0     2     2  0.0679     0.0679     0.0008786 
   1   100   1     0     1     1  0.0688     0.0688     0.0008786 
                          
 THE ANALYSIS HAS NOT BEEN COMPLETED
