1

   Abaqus 2023                                  Date 17-avr.-2024   Time 11:03:43
   For use by ETH ZUERICH under license from Dassault Systemes or its subsidiary.

                                                                                 
                                                                                 
 STEP    1     INCREMENT     1     STEP TIME    0.00    


                        S T E P       1     S T A T I C   A N A L Y S I S


                                                                                          

     AUTOMATIC TIME CONTROL WITH -
          A SUGGESTED INITIAL TIME INCREMENT OF                5.000E-02
          AND A TOTAL TIME PERIOD OF                            1.00    
          THE MINIMUM TIME INCREMENT ALLOWED IS                1.000E-05
          THE MAXIMUM TIME INCREMENT ALLOWED IS                0.100    

     LINEAR EQUATION SOLVER TYPE         DIRECT SPARSE

 CONVERGENCE TOLERANCE PARAMETERS FOR FORCE    
     CRITERION FOR RESIDUAL FORCE     FOR A NONLINEAR PROBLEM          5.000E-03
     CRITERION FOR DISP.    CORRECTION IN A NONLINEAR PROBLEM          1.000E-02
     INITIAL VALUE OF TIME AVERAGE FORCE                               1.000E-02
     AVERAGE FORCE     IS TIME AVERAGE FORCE    
     ALTERNATE CRIT. FOR RESIDUAL FORCE     FOR A NONLINEAR PROBLEM    2.000E-02
     CRITERION FOR ZERO FORCE     RELATIVE TO TIME AVRG. FORCE         1.000E-05
     CRITERION FOR RESIDUAL FORCE     WHEN THERE IS ZERO FLUX          1.000E-05
     CRITERION FOR DISP.    CORRECTION WHEN THERE IS ZERO FLUX         1.000E-03
     CRITERION FOR RESIDUAL FORCE     FOR A LINEAR INCREMENT           1.000E-08
     FIELD CONVERSION RATIO                                             1.00    
     CRITERION FOR ZERO FORCE     REL. TO TIME AVRG. MAX. FORCE        1.000E-05
     CRITERION FOR ZERO DISP.    RELATIVE TO CHARACTERISTIC LENGTH     1.000E-08

     VOLUMETRIC STRAIN COMPATIBILITY TOLERANCE FOR HYBRID SOLIDS       1.000E-05
     AXIAL STRAIN COMPATIBILITY TOLERANCE FOR HYBRID BEAMS             1.000E-05
     TRANS. SHEAR STRAIN COMPATIBILITY TOLERANCE FOR HYBRID BEAMS      1.000E-05
     SOFT CONTACT CONSTRAINT COMPATIBILITY TOLERANCE FOR P>P0          5.000E-03
     SOFT CONTACT CONSTRAINT COMPATIBILITY TOLERANCE FOR P=0.0         0.100    
     CONTACT FORCE ERROR TOLERANCE FOR CONVERT SDI=YES                 1.00    
     DISPLACEMENT COMPATIBILITY TOLERANCE FOR DCOUP ELEMENTS           1.000E-05
     ROTATION COMPATIBILITY TOLERANCE FOR DCOUP ELEMENTS               1.000E-05

 EQUILIBRIUM WILL BE CHECKED FOR SEVERE DISCONTINUITY ITERATIONS

 TIME INCREMENTATION CONTROL PARAMETERS:
     FIRST EQUILIBRIUM ITERATION FOR CONSECUTIVE DIVERGENCE CHECK              4
     EQUILIBRIUM ITERATION AT WHICH LOG. CONVERGENCE RATE CHECK BEGINS         8
     EQUILIBRIUM ITERATION AFTER WHICH ALTERNATE RESIDUAL IS USED              9
     MAXIMUM EQUILIBRIUM ITERATIONS ALLOWED                                   16
     EQUILIBRIUM ITERATION COUNT FOR CUT-BACK IN NEXT INCREMENT               10
     MAXIMUM EQUILIB. ITERS IN TWO INCREMENTS FOR TIME INCREMENT INCREASE      4
     MAXIMUM ITERATIONS FOR SEVERE DISCONTINUITIES                            50
     MAXIMUM ATTEMPTS ALLOWED IN AN INCREMENT                                  5
     MAXIMUM DISCON. ITERS IN TWO INCREMENTS FOR TIME INCREMENT INCREASE      50
     MAXIMUM CONTACT AUGMENTATIONS FOR *SURFACE BEHAVIOR,AUGMENTED LAGRANGE   50
     CUT-BACK FACTOR AFTER DIVERGENCE                                 0.2500    
     CUT-BACK FACTOR FOR TOO SLOW CONVERGENCE                         0.5000    
     CUT-BACK FACTOR AFTER TOO MANY EQUILIBRIUM ITERATIONS            0.7500    
     CUT-BACK FACTOR AFTER TOO MANY SEVERE DISCONTINUITY ITERATIONS   0.2500    
     CUT-BACK FACTOR AFTER PROBLEMS IN ELEMENT ASSEMBLY               0.2500    
     INCREASE FACTOR AFTER TWO INCREMENTS THAT CONVERGE QUICKLY        1.500    
     MAX. TIME INCREMENT INCREASE FACTOR ALLOWED                       1.500    
     MAX. TIME INCREMENT INCREASE FACTOR ALLOWED (DYNAMICS)            1.250    
     MAX. TIME INCREMENT INCREASE FACTOR ALLOWED (DIFFUSION)           2.000    
     MINIMUM TIME INCREMENT RATIO FOR EXTRAPOLATION TO OCCUR          0.1000    
     MAX. RATIO OF TIME INCREMENT TO STABILITY LIMIT                   1.000    
     FRACTION OF STABILITY LIMIT FOR NEW TIME INCREMENT               0.9500    
     TIME INCREMENT INCREASE FACTOR BEFORE A TIME POINT                1.000    
     GLOBAL STABILIZATION CONTROL IS NOT USED

          PRINT OF INCREMENT NUMBER, TIME, ETC., EVERY    1  INCREMENTS

     THE MAXIMUM NUMBER OF INCREMENTS IN THIS STEP IS                     100

     LINEAR EXTRAPOLATION WILL BE USED

     CHARACTERISTIC ELEMENT LENGTH     0.100    

     DETAILS REGARDING ACTUAL SOLUTION WAVEFRONT REQUESTED

     DETAILED OUTPUT OF DIAGNOSTICS TO DATABASE REQUESTED

     PRINT OF INCREMENT NUMBER, TIME, ETC., TO THE MESSAGE FILE EVERY     1  INCREMENTS

     COLLECTING MODEL CONSTRAINT INFORMATION FOR OVERCONSTRAINT CHECKS

     COLLECTING STEP CONSTRAINT INFORMATION FOR OVERCONSTRAINT CHECKS


  INCREMENT     1 STARTS. ATTEMPT NUMBER  1, TIME INCREMENT  5.000E-02
 
	SYMMETRIC DIRECT SPARSE SOLVER RUNNING ON
 	1 HOST:        1 MPI RANK  x 1 THREAD
 	NUMBER OF EQUATIONS:     18
 	NUMBER OF RHS:           1
 	NUMBER OF FLOPS:         2.109e+03

     CHECK POINT  START OF SOLVER     

     CHECK POINT  END OF SOLVER       

       ELAPSED USER TIME (SEC)      =   0.0000    
       ELAPSED SYSTEM TIME (SEC)    =   0.0000    
       ELAPSED TOTAL CPU TIME (SEC) =   0.0000    
       ELAPSED WALLCLOCK TIME (SEC) =            0

               CONVERGENCE CHECKS FOR EQUILIBRIUM ITERATION     1


 AVERAGE FORCE                      1.948E-14   TIME AVG. FORCE       1.000E-02
 LARGEST SCALED RESIDUAL FORCE      5.665E-14   AT NODE          6   DOF  3
  CORRESPONDING RESIDUAL FORCE      5.665E-14
 LARGEST INCREMENT OF DISP.         0.500       AT NODE          1   DOF  2
 LARGEST CORRECTION TO DISP.        0.500       AT NODE          1   DOF  2
          THERE IS ZERO FORCE     EVERYWHERE
 

 ***WARNING: THERE IS ZERO FORCE EVERYWHERE IN THE MODEL BASED ON THE DEFAULT 
             CRITERION. PLEASE CHECK THE VALUE OF THE AVERAGE FORCE DURING THE 
             CURRENT ITERATION TO VERIFY THAT THE FORCE IS SMALL ENOUGH TO BE 
             TREATED AS ZERO. IF NOT, PLEASE USE THE SOLUTION CONTROLS TO RESET 
             THE CRITERION FOR ZERO FORCE.

 ITERATION SUMMARY FOR THE INCREMENT:   1 TOTAL ITERATIONS, OF WHICH
   0 ARE SEVERE DISCONTINUITY ITERATIONS AND  1 ARE EQUILIBRIUM ITERATIONS.

 TIME INCREMENT COMPLETED  5.000E-02,  FRACTION OF STEP COMPLETED  5.000E-02
 STEP TIME COMPLETED       5.000E-02,  TOTAL TIME COMPLETED        5.000E-02


  INCREMENT     2 STARTS. ATTEMPT NUMBER  1, TIME INCREMENT  5.000E-02
 
	SYMMETRIC DIRECT SPARSE SOLVER RUNNING ON
 	1 HOST:        1 MPI RANK  x 1 THREAD
 	NUMBER OF EQUATIONS:     18
 	NUMBER OF RHS:           1
 	NUMBER OF FLOPS:         2.109e+03

     CHECK POINT  START OF SOLVER     

     CHECK POINT  END OF SOLVER       

       ELAPSED USER TIME (SEC)      =   0.0000    
       ELAPSED SYSTEM TIME (SEC)    =   0.0000    
       ELAPSED TOTAL CPU TIME (SEC) =   0.0000    
       ELAPSED WALLCLOCK TIME (SEC) =            0

               CONVERGENCE CHECKS FOR EQUILIBRIUM ITERATION     1


 AVERAGE FORCE                      3.489E-18   TIME AVG. FORCE       1.000E-02
 LARGEST SCALED RESIDUAL FORCE      7.850E-18   AT NODE          1   DOF  1
  CORRESPONDING RESIDUAL FORCE      7.850E-18
 LARGEST INCREMENT OF DISP.         0.500       AT NODE          1   DOF  2
 LARGEST CORRECTION TO DISP.        6.813E-13   AT NODE          6   DOF  3
          THERE IS ZERO FORCE     EVERYWHERE
 

 ***WARNING: THERE IS ZERO FORCE EVERYWHERE IN THE MODEL BASED ON THE DEFAULT 
             CRITERION. PLEASE CHECK THE VALUE OF THE AVERAGE FORCE DURING THE 
             CURRENT ITERATION TO VERIFY THAT THE FORCE IS SMALL ENOUGH TO BE 
             TREATED AS ZERO. IF NOT, PLEASE USE THE SOLUTION CONTROLS TO RESET 
             THE CRITERION FOR ZERO FORCE.
          TIME INCREMENT MAY NOW INCREASE TO    7.500E-02

 ITERATION SUMMARY FOR THE INCREMENT:   1 TOTAL ITERATIONS, OF WHICH
   0 ARE SEVERE DISCONTINUITY ITERATIONS AND  1 ARE EQUILIBRIUM ITERATIONS.

 TIME INCREMENT COMPLETED  5.000E-02,  FRACTION OF STEP COMPLETED  0.100    
 STEP TIME COMPLETED       0.100    ,  TOTAL TIME COMPLETED        0.100    


  INCREMENT     3 STARTS. ATTEMPT NUMBER  1, TIME INCREMENT  7.500E-02
 
	SYMMETRIC DIRECT SPARSE SOLVER RUNNING ON
 	1 HOST:        1 MPI RANK  x 1 THREAD
 	NUMBER OF EQUATIONS:     18
 	NUMBER OF RHS:           1
 	NUMBER OF FLOPS:         2.109e+03

     CHECK POINT  START OF SOLVER     

     CHECK POINT  END OF SOLVER       

       ELAPSED USER TIME (SEC)      =   0.0000    
       ELAPSED SYSTEM TIME (SEC)    =   0.0000    
       ELAPSED TOTAL CPU TIME (SEC) =   0.0000    
       ELAPSED WALLCLOCK TIME (SEC) =            0

               CONVERGENCE CHECKS FOR EQUILIBRIUM ITERATION     1


 AVERAGE FORCE                      9.739E-15   TIME AVG. FORCE       1.000E-02
 LARGEST SCALED RESIDUAL FORCE      1.462E-14   AT NODE          3   DOF  1
  CORRESPONDING RESIDUAL FORCE      1.462E-14
 LARGEST INCREMENT OF DISP.         0.750       AT NODE          1   DOF  2
 LARGEST CORRECTION TO DISP.       -5.110E-13   AT NODE          6   DOF  3
          THERE IS ZERO FORCE     EVERYWHERE
 

 ***WARNING: THERE IS ZERO FORCE EVERYWHERE IN THE MODEL BASED ON THE DEFAULT 
             CRITERION. PLEASE CHECK THE VALUE OF THE AVERAGE FORCE DURING THE 
             CURRENT ITERATION TO VERIFY THAT THE FORCE IS SMALL ENOUGH TO BE 
             TREATED AS ZERO. IF NOT, PLEASE USE THE SOLUTION CONTROLS TO RESET 
             THE CRITERION FOR ZERO FORCE.
          TIME INCREMENT MAY NOW INCREASE TO    0.100    

 ITERATION SUMMARY FOR THE INCREMENT:   1 TOTAL ITERATIONS, OF WHICH
   0 ARE SEVERE DISCONTINUITY ITERATIONS AND  1 ARE EQUILIBRIUM ITERATIONS.

 TIME INCREMENT COMPLETED  7.500E-02,  FRACTION OF STEP COMPLETED  0.175    
 STEP TIME COMPLETED       0.175    ,  TOTAL TIME COMPLETED        0.175    


  INCREMENT     4 STARTS. ATTEMPT NUMBER  1, TIME INCREMENT  0.100    
 
	SYMMETRIC DIRECT SPARSE SOLVER RUNNING ON
 	1 HOST:        1 MPI RANK  x 1 THREAD
 	NUMBER OF EQUATIONS:     18
 	NUMBER OF RHS:           1
 	NUMBER OF FLOPS:         2.109e+03

     CHECK POINT  START OF SOLVER     

     CHECK POINT  END OF SOLVER       

       ELAPSED USER TIME (SEC)      =   0.0000    
       ELAPSED SYSTEM TIME (SEC)    =   0.0000    
       ELAPSED TOTAL CPU TIME (SEC) =   0.0000    
       ELAPSED WALLCLOCK TIME (SEC) =            0

               CONVERGENCE CHECKS FOR EQUILIBRIUM ITERATION     1


 AVERAGE FORCE                      9.739E-15   TIME AVG. FORCE       1.000E-02
 LARGEST SCALED RESIDUAL FORCE      1.463E-14   AT NODE          3   DOF  1
  CORRESPONDING RESIDUAL FORCE      1.463E-14
 LARGEST INCREMENT OF DISP.          1.00       AT NODE          1   DOF  2
 LARGEST CORRECTION TO DISP.       -4.441E-16   AT NODE          1   DOF  2
          THERE IS ZERO FORCE     EVERYWHERE
 

 ***WARNING: THERE IS ZERO FORCE EVERYWHERE IN THE MODEL BASED ON THE DEFAULT 
             CRITERION. PLEASE CHECK THE VALUE OF THE AVERAGE FORCE DURING THE 
             CURRENT ITERATION TO VERIFY THAT THE FORCE IS SMALL ENOUGH TO BE 
             TREATED AS ZERO. IF NOT, PLEASE USE THE SOLUTION CONTROLS TO RESET 
             THE CRITERION FOR ZERO FORCE.

 ITERATION SUMMARY FOR THE INCREMENT:   1 TOTAL ITERATIONS, OF WHICH
   0 ARE SEVERE DISCONTINUITY ITERATIONS AND  1 ARE EQUILIBRIUM ITERATIONS.

 TIME INCREMENT COMPLETED  0.100    ,  FRACTION OF STEP COMPLETED  0.275    
 STEP TIME COMPLETED       0.275    ,  TOTAL TIME COMPLETED        0.275    


  INCREMENT     5 STARTS. ATTEMPT NUMBER  1, TIME INCREMENT  0.100    
 
	SYMMETRIC DIRECT SPARSE SOLVER RUNNING ON
 	1 HOST:        1 MPI RANK  x 1 THREAD
 	NUMBER OF EQUATIONS:     18
 	NUMBER OF RHS:           1
 	NUMBER OF FLOPS:         2.109e+03

     CHECK POINT  START OF SOLVER     

     CHECK POINT  END OF SOLVER       

       ELAPSED USER TIME (SEC)      =   0.0000    
       ELAPSED SYSTEM TIME (SEC)    =   0.0000    
       ELAPSED TOTAL CPU TIME (SEC) =   0.0000    
       ELAPSED WALLCLOCK TIME (SEC) =            0

               CONVERGENCE CHECKS FOR EQUILIBRIUM ITERATION     1


 AVERAGE FORCE                      4.869E-15   TIME AVG. FORCE       1.000E-02
 LARGEST SCALED RESIDUAL FORCE     -7.322E-15   AT NODE          2   DOF  1
  CORRESPONDING RESIDUAL FORCE     -7.322E-15
 LARGEST INCREMENT OF DISP.          1.00       AT NODE          1   DOF  2
 LARGEST CORRECTION TO DISP.        2.220E-16   AT NODE          1   DOF  2
          THERE IS ZERO FORCE     EVERYWHERE
 

 ***WARNING: THERE IS ZERO FORCE EVERYWHERE IN THE MODEL BASED ON THE DEFAULT 
             CRITERION. PLEASE CHECK THE VALUE OF THE AVERAGE FORCE DURING THE 
             CURRENT ITERATION TO VERIFY THAT THE FORCE IS SMALL ENOUGH TO BE 
             TREATED AS ZERO. IF NOT, PLEASE USE THE SOLUTION CONTROLS TO RESET 
             THE CRITERION FOR ZERO FORCE.

 ITERATION SUMMARY FOR THE INCREMENT:   1 TOTAL ITERATIONS, OF WHICH
   0 ARE SEVERE DISCONTINUITY ITERATIONS AND  1 ARE EQUILIBRIUM ITERATIONS.

 TIME INCREMENT COMPLETED  0.100    ,  FRACTION OF STEP COMPLETED  0.375    
 STEP TIME COMPLETED       0.375    ,  TOTAL TIME COMPLETED        0.375    


  INCREMENT     6 STARTS. ATTEMPT NUMBER  1, TIME INCREMENT  0.100    
 
	SYMMETRIC DIRECT SPARSE SOLVER RUNNING ON
 	1 HOST:        1 MPI RANK  x 1 THREAD
 	NUMBER OF EQUATIONS:     18
 	NUMBER OF RHS:           1
 	NUMBER OF FLOPS:         2.109e+03

     CHECK POINT  START OF SOLVER     

     CHECK POINT  END OF SOLVER       

       ELAPSED USER TIME (SEC)      =   0.0000    
       ELAPSED SYSTEM TIME (SEC)    =   0.0000    
       ELAPSED TOTAL CPU TIME (SEC) =   0.0000    
       ELAPSED WALLCLOCK TIME (SEC) =            0

               CONVERGENCE CHECKS FOR EQUILIBRIUM ITERATION     1


 AVERAGE FORCE                      1.483E-17   TIME AVG. FORCE       1.000E-02
 LARGEST SCALED RESIDUAL FORCE     -4.187E-17   AT NODE          4   DOF  1
  CORRESPONDING RESIDUAL FORCE     -4.187E-17
 LARGEST INCREMENT OF DISP.          1.00       AT NODE          1   DOF  2
 LARGEST CORRECTION TO DISP.        1.666E-16   AT NODE          1   DOF  1
          THERE IS ZERO FORCE     EVERYWHERE
 

 ***WARNING: THERE IS ZERO FORCE EVERYWHERE IN THE MODEL BASED ON THE DEFAULT 
             CRITERION. PLEASE CHECK THE VALUE OF THE AVERAGE FORCE DURING THE 
             CURRENT ITERATION TO VERIFY THAT THE FORCE IS SMALL ENOUGH TO BE 
             TREATED AS ZERO. IF NOT, PLEASE USE THE SOLUTION CONTROLS TO RESET 
             THE CRITERION FOR ZERO FORCE.

 ITERATION SUMMARY FOR THE INCREMENT:   1 TOTAL ITERATIONS, OF WHICH
   0 ARE SEVERE DISCONTINUITY ITERATIONS AND  1 ARE EQUILIBRIUM ITERATIONS.

 TIME INCREMENT COMPLETED  0.100    ,  FRACTION OF STEP COMPLETED  0.475    
 STEP TIME COMPLETED       0.475    ,  TOTAL TIME COMPLETED        0.475    


  INCREMENT     7 STARTS. ATTEMPT NUMBER  1, TIME INCREMENT  0.100    
 
	SYMMETRIC DIRECT SPARSE SOLVER RUNNING ON
 	1 HOST:        1 MPI RANK  x 1 THREAD
 	NUMBER OF EQUATIONS:     18
 	NUMBER OF RHS:           1
 	NUMBER OF FLOPS:         2.109e+03

     CHECK POINT  START OF SOLVER     

     CHECK POINT  END OF SOLVER       

       ELAPSED USER TIME (SEC)      =   0.0000    
       ELAPSED SYSTEM TIME (SEC)    =   0.0000    
       ELAPSED TOTAL CPU TIME (SEC) =   0.0000    
       ELAPSED WALLCLOCK TIME (SEC) =            0

               CONVERGENCE CHECKS FOR EQUILIBRIUM ITERATION     1


 AVERAGE FORCE                      9.739E-15   TIME AVG. FORCE       1.000E-02
 LARGEST SCALED RESIDUAL FORCE      1.466E-14   AT NODE          1   DOF  1
  CORRESPONDING RESIDUAL FORCE      1.466E-14
 LARGEST INCREMENT OF DISP.          1.00       AT NODE          1   DOF  2
 LARGEST CORRECTION TO DISP.        2.166E-16   AT NODE          3   DOF  1
          THERE IS ZERO FORCE     EVERYWHERE
 

 ***WARNING: THERE IS ZERO FORCE EVERYWHERE IN THE MODEL BASED ON THE DEFAULT 
             CRITERION. PLEASE CHECK THE VALUE OF THE AVERAGE FORCE DURING THE 
             CURRENT ITERATION TO VERIFY THAT THE FORCE IS SMALL ENOUGH TO BE 
             TREATED AS ZERO. IF NOT, PLEASE USE THE SOLUTION CONTROLS TO RESET 
             THE CRITERION FOR ZERO FORCE.

 ITERATION SUMMARY FOR THE INCREMENT:   1 TOTAL ITERATIONS, OF WHICH
   0 ARE SEVERE DISCONTINUITY ITERATIONS AND  1 ARE EQUILIBRIUM ITERATIONS.

 TIME INCREMENT COMPLETED  0.100    ,  FRACTION OF STEP COMPLETED  0.575    
 STEP TIME COMPLETED       0.575    ,  TOTAL TIME COMPLETED        0.575    


  INCREMENT     8 STARTS. ATTEMPT NUMBER  1, TIME INCREMENT  0.100    
 
	SYMMETRIC DIRECT SPARSE SOLVER RUNNING ON
 	1 HOST:        1 MPI RANK  x 1 THREAD
 	NUMBER OF EQUATIONS:     18
 	NUMBER OF RHS:           1
 	NUMBER OF FLOPS:         2.109e+03

     CHECK POINT  START OF SOLVER     

     CHECK POINT  END OF SOLVER       

       ELAPSED USER TIME (SEC)      =   0.0000    
       ELAPSED SYSTEM TIME (SEC)    =   0.0000    
       ELAPSED TOTAL CPU TIME (SEC) =   0.0000    
       ELAPSED WALLCLOCK TIME (SEC) =            0

               CONVERGENCE CHECKS FOR EQUILIBRIUM ITERATION     1


 AVERAGE FORCE                      4.869E-15   TIME AVG. FORCE       1.000E-02
 LARGEST SCALED RESIDUAL FORCE      7.346E-15   AT NODE          3   DOF  1
  CORRESPONDING RESIDUAL FORCE      7.346E-15
 LARGEST INCREMENT OF DISP.          1.00       AT NODE          1   DOF  2
 LARGEST CORRECTION TO DISP.       -8.882E-16   AT NODE          1   DOF  2
          THERE IS ZERO FORCE     EVERYWHERE
 

 ***WARNING: THERE IS ZERO FORCE EVERYWHERE IN THE MODEL BASED ON THE DEFAULT 
             CRITERION. PLEASE CHECK THE VALUE OF THE AVERAGE FORCE DURING THE 
             CURRENT ITERATION TO VERIFY THAT THE FORCE IS SMALL ENOUGH TO BE 
             TREATED AS ZERO. IF NOT, PLEASE USE THE SOLUTION CONTROLS TO RESET 
             THE CRITERION FOR ZERO FORCE.

 ITERATION SUMMARY FOR THE INCREMENT:   1 TOTAL ITERATIONS, OF WHICH
   0 ARE SEVERE DISCONTINUITY ITERATIONS AND  1 ARE EQUILIBRIUM ITERATIONS.

 TIME INCREMENT COMPLETED  0.100    ,  FRACTION OF STEP COMPLETED  0.675    
 STEP TIME COMPLETED       0.675    ,  TOTAL TIME COMPLETED        0.675    


  INCREMENT     9 STARTS. ATTEMPT NUMBER  1, TIME INCREMENT  0.100    
 
	SYMMETRIC DIRECT SPARSE SOLVER RUNNING ON
 	1 HOST:        1 MPI RANK  x 1 THREAD
 	NUMBER OF EQUATIONS:     18
 	NUMBER OF RHS:           1
 	NUMBER OF FLOPS:         2.109e+03

     CHECK POINT  START OF SOLVER     

     CHECK POINT  END OF SOLVER       

       ELAPSED USER TIME (SEC)      =   0.0000    
       ELAPSED SYSTEM TIME (SEC)    =   0.0000    
       ELAPSED TOTAL CPU TIME (SEC) =   0.0000    
       ELAPSED WALLCLOCK TIME (SEC) =            0

               CONVERGENCE CHECKS FOR EQUILIBRIUM ITERATION     1


 AVERAGE FORCE                      4.869E-15   TIME AVG. FORCE       1.000E-02
 LARGEST SCALED RESIDUAL FORCE     -7.383E-15   AT NODE          4   DOF  1
  CORRESPONDING RESIDUAL FORCE     -7.383E-15
 LARGEST INCREMENT OF DISP.          1.00       AT NODE          1   DOF  2
 LARGEST CORRECTION TO DISP.       -1.037E-15   AT NODE          2   DOF  3
          THERE IS ZERO FORCE     EVERYWHERE
 

 ***WARNING: THERE IS ZERO FORCE EVERYWHERE IN THE MODEL BASED ON THE DEFAULT 
             CRITERION. PLEASE CHECK THE VALUE OF THE AVERAGE FORCE DURING THE 
             CURRENT ITERATION TO VERIFY THAT THE FORCE IS SMALL ENOUGH TO BE 
             TREATED AS ZERO. IF NOT, PLEASE USE THE SOLUTION CONTROLS TO RESET 
             THE CRITERION FOR ZERO FORCE.

 ITERATION SUMMARY FOR THE INCREMENT:   1 TOTAL ITERATIONS, OF WHICH
   0 ARE SEVERE DISCONTINUITY ITERATIONS AND  1 ARE EQUILIBRIUM ITERATIONS.

 TIME INCREMENT COMPLETED  0.100    ,  FRACTION OF STEP COMPLETED  0.775    
 STEP TIME COMPLETED       0.775    ,  TOTAL TIME COMPLETED        0.775    


  INCREMENT    10 STARTS. ATTEMPT NUMBER  1, TIME INCREMENT  0.100    
 
	SYMMETRIC DIRECT SPARSE SOLVER RUNNING ON
 	1 HOST:        1 MPI RANK  x 1 THREAD
 	NUMBER OF EQUATIONS:     18
 	NUMBER OF RHS:           1
 	NUMBER OF FLOPS:         2.109e+03

     CHECK POINT  START OF SOLVER     

     CHECK POINT  END OF SOLVER       

       ELAPSED USER TIME (SEC)      =   0.0000    
       ELAPSED SYSTEM TIME (SEC)    =   0.0000    
       ELAPSED TOTAL CPU TIME (SEC) =   0.0000    
       ELAPSED WALLCLOCK TIME (SEC) =            0

               CONVERGENCE CHECKS FOR EQUILIBRIUM ITERATION     1


 AVERAGE FORCE                      4.869E-15   TIME AVG. FORCE       1.000E-02
 LARGEST SCALED RESIDUAL FORCE     -7.383E-15   AT NODE          2   DOF  1
  CORRESPONDING RESIDUAL FORCE     -7.383E-15
 LARGEST INCREMENT OF DISP.          1.00       AT NODE          1   DOF  2
 LARGEST CORRECTION TO DISP.       -8.882E-16   AT NODE          1   DOF  2
          THERE IS ZERO FORCE     EVERYWHERE
 

 ***WARNING: THERE IS ZERO FORCE EVERYWHERE IN THE MODEL BASED ON THE DEFAULT 
             CRITERION. PLEASE CHECK THE VALUE OF THE AVERAGE FORCE DURING THE 
             CURRENT ITERATION TO VERIFY THAT THE FORCE IS SMALL ENOUGH TO BE 
             TREATED AS ZERO. IF NOT, PLEASE USE THE SOLUTION CONTROLS TO RESET 
             THE CRITERION FOR ZERO FORCE.

 ITERATION SUMMARY FOR THE INCREMENT:   1 TOTAL ITERATIONS, OF WHICH
   0 ARE SEVERE DISCONTINUITY ITERATIONS AND  1 ARE EQUILIBRIUM ITERATIONS.

 TIME INCREMENT COMPLETED  0.100    ,  FRACTION OF STEP COMPLETED  0.875    
 STEP TIME COMPLETED       0.875    ,  TOTAL TIME COMPLETED        0.875    


  INCREMENT    11 STARTS. ATTEMPT NUMBER  1, TIME INCREMENT  0.100    
 
	SYMMETRIC DIRECT SPARSE SOLVER RUNNING ON
 	1 HOST:        1 MPI RANK  x 1 THREAD
 	NUMBER OF EQUATIONS:     18
 	NUMBER OF RHS:           1
 	NUMBER OF FLOPS:         2.109e+03

     CHECK POINT  START OF SOLVER     

     CHECK POINT  END OF SOLVER       

       ELAPSED USER TIME (SEC)      =   0.0000    
       ELAPSED SYSTEM TIME (SEC)    =   0.0000    
       ELAPSED TOTAL CPU TIME (SEC) =   0.0000    
       ELAPSED WALLCLOCK TIME (SEC) =            0

               CONVERGENCE CHECKS FOR EQUILIBRIUM ITERATION     1


 AVERAGE FORCE                      4.869E-15   TIME AVG. FORCE       1.000E-02
 LARGEST SCALED RESIDUAL FORCE     -7.393E-15   AT NODE          4   DOF  1
  CORRESPONDING RESIDUAL FORCE     -7.393E-15
 LARGEST INCREMENT OF DISP.          1.00       AT NODE          1   DOF  2
 LARGEST CORRECTION TO DISP.        8.882E-16   AT NODE          1   DOF  2
          THERE IS ZERO FORCE     EVERYWHERE
 

 ***WARNING: THERE IS ZERO FORCE EVERYWHERE IN THE MODEL BASED ON THE DEFAULT 
             CRITERION. PLEASE CHECK THE VALUE OF THE AVERAGE FORCE DURING THE 
             CURRENT ITERATION TO VERIFY THAT THE FORCE IS SMALL ENOUGH TO BE 
             TREATED AS ZERO. IF NOT, PLEASE USE THE SOLUTION CONTROLS TO RESET 
             THE CRITERION FOR ZERO FORCE.

 ITERATION SUMMARY FOR THE INCREMENT:   1 TOTAL ITERATIONS, OF WHICH
   0 ARE SEVERE DISCONTINUITY ITERATIONS AND  1 ARE EQUILIBRIUM ITERATIONS.

 TIME INCREMENT COMPLETED  0.100    ,  FRACTION OF STEP COMPLETED  0.975    
 STEP TIME COMPLETED       0.975    ,  TOTAL TIME COMPLETED        0.975    


  INCREMENT    12 STARTS. ATTEMPT NUMBER  1, TIME INCREMENT  2.500E-02
 
	SYMMETRIC DIRECT SPARSE SOLVER RUNNING ON
 	1 HOST:        1 MPI RANK  x 1 THREAD
 	NUMBER OF EQUATIONS:     18
 	NUMBER OF RHS:           1
 	NUMBER OF FLOPS:         2.109e+03

     CHECK POINT  START OF SOLVER     

     CHECK POINT  END OF SOLVER       

       ELAPSED USER TIME (SEC)      =   0.0000    
       ELAPSED SYSTEM TIME (SEC)    =   0.0000    
       ELAPSED TOTAL CPU TIME (SEC) =   0.0000    
       ELAPSED WALLCLOCK TIME (SEC) =            0

               CONVERGENCE CHECKS FOR EQUILIBRIUM ITERATION     1


 AVERAGE FORCE                      2.435E-15   TIME AVG. FORCE       1.000E-02
 LARGEST SCALED RESIDUAL FORCE      3.746E-15   AT NODE          1   DOF  1
  CORRESPONDING RESIDUAL FORCE      3.746E-15
 LARGEST INCREMENT OF DISP.         0.250       AT NODE          1   DOF  2
 LARGEST CORRECTION TO DISP.        7.216E-16   AT NODE          1   DOF  2
          THERE IS ZERO FORCE     EVERYWHERE
 

 ***WARNING: THERE IS ZERO FORCE EVERYWHERE IN THE MODEL BASED ON THE DEFAULT 
             CRITERION. PLEASE CHECK THE VALUE OF THE AVERAGE FORCE DURING THE 
             CURRENT ITERATION TO VERIFY THAT THE FORCE IS SMALL ENOUGH TO BE 
             TREATED AS ZERO. IF NOT, PLEASE USE THE SOLUTION CONTROLS TO RESET 
             THE CRITERION FOR ZERO FORCE.

 ITERATION SUMMARY FOR THE INCREMENT:   1 TOTAL ITERATIONS, OF WHICH
   0 ARE SEVERE DISCONTINUITY ITERATIONS AND  1 ARE EQUILIBRIUM ITERATIONS.

 TIME INCREMENT COMPLETED  2.500E-02,  FRACTION OF STEP COMPLETED   1.00    
 STEP TIME COMPLETED        1.00    ,  TOTAL TIME COMPLETED         1.00    


          THE ANALYSIS HAS BEEN COMPLETED



     ANALYSIS SUMMARY:
     TOTAL OF         12  INCREMENTS
                       0  CUTBACKS IN AUTOMATIC INCREMENTATION
                      12  ITERATIONS INCLUDING CONTACT ITERATIONS IF PRESENT
                      12  PASSES THROUGH THE EQUATION SOLVER OF WHICH 
                       1  INVOLVE MATRIX DECOMPOSITION, INCLUDING
                       0  DECOMPOSITION(S) OF THE MASS MATRIX
                       1  REORDERING OF EQUATIONS TO MINIMIZE WAVEFRONT
                       0  ADDITIONAL RESIDUAL EVALUATIONS FOR LINE SEARCHES
                       0  ADDITIONAL OPERATOR EVALUATIONS FOR LINE SEARCHES
                      10  WARNING MESSAGES DURING USER INPUT PROCESSING
                      12  WARNING MESSAGES DURING ANALYSIS
                       0  ANALYSIS WARNINGS ARE NUMERICAL PROBLEM MESSAGES
                       0  ANALYSIS WARNINGS ARE NEGATIVE EIGENVALUE MESSAGES
                       0  ERROR MESSAGES



     JOB TIME SUMMARY
       USER TIME (SEC)      =      0.0    
       SYSTEM TIME (SEC)    =      0.0    
       TOTAL CPU TIME (SEC) =      0.0    
       WALLCLOCK TIME (SEC) =            0
       MEMORY PEAK (GB)     =            0
