 Abaqus/Standard 2023                  DATE 24-May-2024 TIME 17:49:13
 SUMMARY OF JOB INFORMATION:
 STEP  INC ATT SEVERE EQUIL TOTAL  TOTAL      STEP       INC OF       DOF    IF
               DISCON ITERS ITERS  TIME/    TIME/LPF    TIME/LPF    MONITOR RIKS
               ITERS               FREQ
   1     1   1     0     2     2  0.00200    0.00200    0.002000  
   1     2   1     0     1     1  0.00400    0.00400    0.002000  
   1     3   1     0     3     3  0.00600    0.00600    0.002000  
   1     4   1U    0     4     4  0.00600    0.00600    0.002000  
   1     4   2     0     3     3  0.00650    0.00650    0.0005000 
   1     5   1     0     2     2  0.00725    0.00725    0.0007500 
   1     6   1U    0    16    16  0.00725    0.00725    0.001125  
   1     6   2     0     2     2  0.00753    0.00753    0.0002813 
   1     7   1     0     2     2  0.00795    0.00795    0.0004219 
   1     8   1     0     1     1  0.00859    0.00859    0.0006328 
   1     9   1     0     2     2  0.00954    0.00954    0.0009492 
   1    10   1U    0     4     4  0.00954    0.00954    0.001424  
   1    10   2     0     2     2  0.00989    0.00989    0.0003560 
   1    11   1     0     1     1  0.0104     0.0104     0.0005339 
   1    12   1     0     1     1  0.0112     0.0112     0.0008009 
   1    13   1     0     2     2  0.0124     0.0124     0.001201  
   1    14   1U    0     4     4  0.0124     0.0124     0.001802  
   1    14   2     0     2     2  0.0129     0.0129     0.0004505 
   1    15   1     0     1     1  0.0136     0.0136     0.0006758 
   1    16   1     0     1     1  0.0146     0.0146     0.001014  
   1    17   1     0     1     1  0.0161     0.0161     0.001520  
   1    18   1     0     1     1  0.0181     0.0181     0.002000  
   1    19   1U    0     4     4  0.0181     0.0181     0.002000  
   1    19   2     0     1     1  0.0186     0.0186     0.0005000 
   1    20   1     0     1     1  0.0193     0.0193     0.0007500 
   1    21   1     0     1     1  0.0205     0.0205     0.001125  
   1    22   1     0     1     1  0.0222     0.0222     0.001688  
   1    23   1U    0     4     4  0.0222     0.0222     0.002000  
   1    23   2     0     1     1  0.0227     0.0227     0.0005000 
   1    24   1     0     4     4  0.0234     0.0234     0.0007500 
   1    25   1     0     1     1  0.0245     0.0245     0.001125  
   1    26   1U    0     4     4  0.0245     0.0245     0.001688  
   1    26   2     0     1     1  0.0249     0.0249     0.0004219 
   1    27   1     0     3     3  0.0256     0.0256     0.0006328 
   1    28   1     0     9     9  0.0265     0.0265     0.0009492 
   1    29   1     0     7     7  0.0275     0.0275     0.0009492 
   1    30   1     0    12    12  0.0284     0.0284     0.0009492 
   1    31   1     0     1     1  0.0291     0.0291     0.0007119 
   1    32   1     0     3     3  0.0299     0.0299     0.0007119 
   1    33   1     0    16    16  0.0309     0.0309     0.001068  
   1    34   1     0     2     2  0.0317     0.0317     0.0008009 
   1    35   1     0     1     1  0.0325     0.0325     0.0008009 
   1    36   1U    0    16    16  0.0325     0.0325     0.001201  
   1    36   2     0     2     2  0.0328     0.0328     0.0003003 
   1    37   1     0     1     1  0.0333     0.0333     0.0004505 
   1    38   1     0     1     1  0.0339     0.0339     0.0006758 
   1    39   1     0     3     3  0.0350     0.0350     0.001014  
   1    40   1U    0     4     4  0.0350     0.0350     0.001520  
   1    40   2     0     2     2  0.0353     0.0353     0.0003801 
   1    41   1     0     1     1  0.0359     0.0359     0.0005702 
   1    42   1     0     1     1  0.0368     0.0368     0.0008553 
   1    43   1U    0     4     4  0.0368     0.0368     0.001283  
   1    43   2     0     1     1  0.0371     0.0371     0.0003207 
   1    44   1     0     1     1  0.0376     0.0376     0.0004811 
   1    45   1     0     2     2  0.0383     0.0383     0.0007216 
   1    46   1     0     4     4  0.0394     0.0394     0.001082  
   1    47   1U    0     4     4  0.0394     0.0394     0.001624  
   1    47   2     0     2     2  0.0398     0.0398     0.0004059 
   1    48   1     0     1     1  0.0404     0.0404     0.0006089 
   1    49   1     0     1     1  0.0413     0.0413     0.0009133 
   1    50   1     0     1     1  0.0427     0.0427     0.001370  
   1    51   1U    0     4     4  0.0427     0.0427     0.002000  
   1    51   2     0     2     2  0.0432     0.0432     0.0005000 
   1    52   1     0     1     1  0.0439     0.0439     0.0007500 
   1    53   1     0     1     1  0.0450     0.0450     0.001125  
   1    54   1U    0     4     4  0.0450     0.0450     0.001688  
   1    54   2     0     1     1  0.0455     0.0455     0.0004219 
   1    55   1     0     3     3  0.0461     0.0461     0.0006328 
   1    56   1     0     5     5  0.0470     0.0470     0.0009492 
   1    57   1     0     4     4  0.0480     0.0480     0.0009492 
   1    58   1     0     1     1  0.0489     0.0489     0.0009492 
   1    59   1     0     8     8  0.0500     0.0500     0.001052  
   2     1   1     0     2     2  0.0520     0.00200    0.002000  
   2     2   1     0     1     1  0.0540     0.00400    0.002000  
   2     3   1     0     1     1  0.0570     0.00700    0.003000  
   2     4   1     0     1     1  0.0615     0.0115     0.004500  
   2     5   1     0     1     1  0.0665     0.0165     0.005000  
   2     6   1     0     1     1  0.0715     0.0215     0.005000  
   2     7   1     0     1     1  0.0765     0.0265     0.005000  
   2     8   1     0     1     1  0.0815     0.0315     0.005000  
   2     9   1     0     1     1  0.0865     0.0365     0.005000  
   2    10   1     0     1     1  0.0915     0.0415     0.005000  
   2    11   1     0     1     1  0.0965     0.0465     0.005000  
   2    12   1     0     1     1  0.102      0.0515     0.005000  
   2    13   1     0     1     1  0.107      0.0565     0.005000  
   2    14   1     0     1     1  0.112      0.0615     0.005000  
   2    15   1     0     1     1  0.117      0.0665     0.005000  
   2    16   1     0     1     1  0.122      0.0715     0.005000  
   2    17   1     0     1     1  0.127      0.0765     0.005000  
   2    18   1     0     1     1  0.132      0.0815     0.005000  
   2    19   1     0     1     1  0.137      0.0865     0.005000  
   2    20   1     0     1     1  0.142      0.0915     0.005000  
   2    21   1     0     1     1  0.147      0.0965     0.005000  
   2    22   1     0     1     1  0.152      0.102      0.005000  
   2    23   1     0     1     1  0.157      0.107      0.005000  
   2    24   1     0     1     1  0.162      0.112      0.005000  
   2    25   1     0     1     1  0.167      0.117      0.005000  
   2    26   1     0     1     1  0.172      0.122      0.005000  
   2    27   1     0     1     1  0.177      0.127      0.005000  
   2    28   1     0     1     1  0.182      0.132      0.005000  
   2    29   1     0     1     1  0.187      0.137      0.005000  
   2    30   1     0     1     1  0.192      0.142      0.005000  
   2    31   1     0     1     1  0.197      0.147      0.005000  
   2    32   1     0     1     1  0.202      0.152      0.005000  
   2    33   1     0     1     1  0.207      0.157      0.005000  
   2    34   1     0     1     1  0.212      0.162      0.005000  
   2    35   1     0     1     1  0.217      0.167      0.005000  
   2    36   1     0     1     1  0.222      0.172      0.005000  
   2    37   1     0     1     1  0.227      0.177      0.005000  
   2    38   1     0     1     1  0.232      0.182      0.005000  
   2    39   1     0     1     1  0.237      0.187      0.005000  
   2    40   1     0     1     1  0.242      0.192      0.005000  
   2    41   1     0     1     1  0.247      0.197      0.005000  
   2    42   1     0     1     1  0.252      0.202      0.005000  
   2    43   1     0     1     1  0.257      0.207      0.005000  
   2    44   1     0     1     1  0.262      0.212      0.005000  
   2    45   1     0     1     1  0.267      0.217      0.005000  
   2    46   1     0     1     1  0.272      0.222      0.005000  
   2    47   1     0     1     1  0.277      0.227      0.005000  
   2    48   1     0     1     1  0.282      0.232      0.005000  
   2    49   1     0     1     1  0.287      0.237      0.005000  
   2    50   1     0     1     1  0.292      0.242      0.005000  
   2    51   1     0     1     1  0.297      0.247      0.005000  
   2    52   1     0     1     1  0.302      0.252      0.005000  
   2    53   1     0     1     1  0.307      0.257      0.005000  
   2    54   1     0     1     1  0.312      0.262      0.005000  
   2    55   1     0     1     1  0.317      0.267      0.005000  
   2    56   1     0     1     1  0.322      0.272      0.005000  
   2    57   1     0     1     1  0.327      0.277      0.005000  
   2    58   1     0     1     1  0.332      0.282      0.005000  
   2    59   1     0     1     1  0.337      0.287      0.005000  
   2    60   1     0     1     1  0.342      0.292      0.005000  
   2    61   1     0     1     1  0.347      0.297      0.005000  
   2    62   1     0     1     1  0.352      0.302      0.005000  
   2    63   1     0     1     1  0.357      0.307      0.005000  
   2    64   1     0     1     1  0.362      0.312      0.005000  
   2    65   1     0     1     1  0.367      0.317      0.005000  
   2    66   1     0     1     1  0.372      0.322      0.005000  
   2    67   1     0     1     1  0.377      0.327      0.005000  
   2    68   1     0     1     1  0.382      0.332      0.005000  
   2    69   1     0     1     1  0.387      0.337      0.005000  
   2    70   1     0     1     1  0.392      0.342      0.005000  
   2    71   1     0     1     1  0.397      0.347      0.005000  
   2    72   1     0     1     1  0.402      0.352      0.005000  
   2    73   1     0     1     1  0.407      0.357      0.005000  
   2    74   1     0     1     1  0.412      0.362      0.005000  
   2    75   1     0     1     1  0.417      0.367      0.005000  
   2    76   1     0     1     1  0.422      0.372      0.005000  
   2    77   1     0     1     1  0.427      0.377      0.005000  
   2    78   1     0     1     1  0.432      0.382      0.005000  
   2    79   1     0     1     1  0.437      0.387      0.005000  
   2    80   1     0     1     1  0.442      0.392      0.005000  
   2    81   1     0     1     1  0.447      0.397      0.005000  
   2    82   1     0     1     1  0.452      0.402      0.005000  
   2    83   1     0     1     1  0.457      0.407      0.005000  
   2    84   1     0     1     1  0.462      0.412      0.005000  
   2    85   1     0     1     1  0.467      0.417      0.005000  
   2    86   1     0     1     1  0.472      0.422      0.005000  
   2    87   1     0     1     1  0.477      0.427      0.005000  
   2    88   1     0     1     1  0.482      0.432      0.005000  
   2    89   1     0     1     1  0.487      0.437      0.005000  
   2    90   1     0     1     1  0.492      0.442      0.005000  
   2    91   1     0     1     1  0.497      0.447      0.005000  
   2    92   1     0     1     1  0.502      0.452      0.005000  
   2    93   1     0     1     1  0.507      0.457      0.005000  
   2    94   1     0     1     1  0.512      0.462      0.005000  
   2    95   1     0     1     1  0.517      0.467      0.005000  
   2    96   1     0     1     1  0.522      0.472      0.005000  
   2    97   1     0     1     1  0.527      0.477      0.005000  
   2    98   1     0     1     1  0.532      0.482      0.005000  
   2    99   1     0     1     1  0.537      0.487      0.005000  
   2   100   1     0     1     1  0.542      0.492      0.005000  
                          
 THE ANALYSIS HAS NOT BEEN COMPLETED
