 Abaqus/Standard 2023                  DATE 23-Jul-2024 TIME 16:04:22
 SUMMARY OF JOB INFORMATION:
 STEP  INC ATT SEVERE EQUIL TOTAL  TOTAL      STEP       INC OF       DOF    IF
               DISCON ITERS ITERS  TIME/    TIME/LPF    TIME/LPF    MONITOR RIKS
               ITERS               FREQ
   1     1   1     0     2     2  0.000297   0.000297   0.0002966 
   1     2   1     0     1     1  0.000593   0.000593   0.0002966 
   1     3   1     0     1     1  0.00104    0.00104    0.0004449 
   1     4   1     0     1     1  0.00171    0.00171    0.0006674 
   1     5   1     0     1     1  0.00271    0.00271    0.001001  
   1     6   1     0     1     1  0.00421    0.00421    0.001502  
   1     7   1     0     1     1  0.00646    0.00646    0.002252  
   1     8   1     0     1     1  0.00984    0.00984    0.003378  
   1     9   1     0     1     1  0.0149     0.0149     0.005068  
   1    10   1     0     1     1  0.0225     0.0225     0.007602  
   1    11   1     0     1     1  0.0339     0.0339     0.01140   
   1    12   1     0     1     1  0.0510     0.0510     0.01710   
   1    13   1     0     1     1  0.0767     0.0767     0.02566   
   1    14   1     0     1     1  0.115      0.115      0.03848   
   1    15   1     0     1     1  0.173      0.173      0.05772   
   1    16   1     0     1     1  0.259      0.259      0.08659   
   1    17   1     0     1     1  0.389      0.389      0.1299    
   1    18   1     0     1     1  0.584      0.584      0.1948    
   1    19   1     0     1     1  0.876      0.876      0.2922    
   1    20   1     0     1     1  1.31       1.31       0.4383    
   1    21   1     0     1     1  1.97       1.97       0.6575    
   1    22   1     0     1     1  2.96       2.96       0.9863    
   1    23   1     0     1     1  4.44       4.44       1.479     
   1    24   1     0     1     1  6.66       6.66       2.219     
   1    25   1     0     1     1  9.62       9.62       2.966     
   1    26   1     0     1     1  12.6       12.6       2.966     
   1    27   1     0     1     1  15.6       15.6       2.966     
   1    28   1     0     1     1  18.5       18.5       2.966     
   1    29   1     0     1     1  21.5       21.5       2.966     
   1    30   1     0     1     1  24.5       24.5       2.966     
   1    31   1     0     1     1  27.4       27.4       2.966     
   1    32   1     0     1     1  30.4       30.4       2.966     
   1    33   1     0     1     1  33.4       33.4       2.966     
   1    34   1     0     1     1  36.3       36.3       2.966     
   1    35   1     0     1     1  39.3       39.3       2.966     
   1    36   1     0     1     1  42.2       42.2       2.966     
   1    37   1     0     1     1  45.2       45.2       2.966     
   1    38   1     0     1     1  48.2       48.2       2.966     
   1    39   1     0     1     1  51.1       51.1       2.966     
   1    40   1     0     1     1  54.1       54.1       2.966     
   1    41   1     0     1     1  57.1       57.1       2.966     
   1    42   1     0     1     1  60.0       60.0       2.966     
   1    43   1     0     1     1  63.0       63.0       2.966     
   1    44   1     0     1     1  66.0       66.0       2.966     
   1    45   1     0     1     1  68.9       68.9       2.966     
   1    46   1     0     1     1  71.9       71.9       2.966     
   1    47   1     0     1     1  74.9       74.9       2.966     
   1    48   1     0     1     1  77.8       77.8       2.966     
   1    49   1     0     1     1  80.8       80.8       2.966     
   1    50   1     0     1     1  83.8       83.8       2.966     
   1    51   1     0     1     1  86.7       86.7       2.966     
   1    52   1     0     1     1  89.7       89.7       2.966     
   1    53   1     0     1     1  92.7       92.7       2.966     
   1    54   1     0     1     1  95.6       95.6       2.966     
   1    55   1     0     1     1  98.6       98.6       2.966     
   1    56   1     0     1     1  102.       102.       2.966     
   1    57   1     0     1     1  105.       105.       2.966     
   1    58   1     0     1     1  108.       108.       2.966     
   1    59   1     0     1     1  110.       110.       2.966     
   1    60   1     0     1     1  113.       113.       2.966     
   1    61   1     0     1     1  116.       116.       2.966     
   1    62   1     0     1     1  119.       119.       2.966     
   1    63   1     0     1     1  122.       122.       2.966     
   1    64   1     0     1     1  125.       125.       2.966     
   1    65   1     0     1     1  128.       128.       2.966     
   1    66   1     0     1     1  131.       131.       2.966     
   1    67   1     0     1     1  134.       134.       2.966     
   1    68   1     0     1     1  137.       137.       2.966     
   1    69   1     0     1     1  140.       140.       2.966     
   1    70   1     0     1     1  143.       143.       2.966     
   1    71   1     0     1     1  146.       146.       2.966     
   1    72   1     0     1     1  149.       149.       2.966     
   1    73   1     0     1     1  152.       152.       2.966     
   1    74   1     0     1     1  155.       155.       2.966     
   1    75   1     0     1     1  158.       158.       2.966     
   1    76   1     0     1     1  161.       161.       2.966     
   1    77   1     0     1     1  164.       164.       2.966     
   1    78   1     0     1     1  167.       167.       2.966     
   1    79   1     0     1     1  170.       170.       2.966     
   1    80   1     0     1     1  173.       173.       2.966     
   1    81   1     0     1     1  176.       176.       2.966     
   1    82   1     0     1     1  179.       179.       2.966     
   1    83   1     0     1     1  182.       182.       2.966     
   1    84   1     0     1     1  185.       185.       2.966     
   1    85   1     0     1     1  188.       188.       2.966     
   1    86   1     0     1     1  191.       191.       2.966     
   1    87   1     0     1     1  194.       194.       2.966     
   1    88   1     0     1     1  196.       196.       2.966     
   1    89   1     0     1     1  199.       199.       2.966     
   1    90   1     0     1     1  202.       202.       2.966     
   1    91   1     0     1     1  205.       205.       2.966     
   1    92   1     0     1     1  208.       208.       2.966     
   1    93   1     0     1     1  211.       211.       2.966     
   1    94   1     0     1     1  214.       214.       2.966     
   1    95   1     0     1     1  217.       217.       2.966     
   1    96   1     0     1     1  220.       220.       2.966     
   1    97   1     0     1     1  223.       223.       2.966     
   1    98   1     0     1     1  226.       226.       2.966     
   1    99   1     0     1     1  229.       229.       2.966     
   1   100   1     0     1     1  232.       232.       2.966     
   1   101   1     0     1     1  235.       235.       2.966     
   1   102   1     0     1     1  238.       238.       2.966     
   1   103   1     0     1     1  241.       241.       2.966     
   1   104   1     0     1     1  244.       244.       2.966     
   1   105   1     0     1     1  247.       247.       2.966     
   1   106   1     0     1     1  250.       250.       2.966     
   1   107   1     0     1     1  253.       253.       2.966     
   1   108   1     0     1     1  256.       256.       2.966     
   1   109   1     0     1     1  259.       259.       2.966     
   1   110   1     0     1     1  262.       262.       2.966     
   1   111   1     0     1     1  265.       265.       2.966     
   1   112   1     0     1     1  268.       268.       2.966     
   1   113   1     0     1     1  271.       271.       2.966     
   1   114   1     0     1     1  274.       274.       2.966     
   1   115   1     0     1     1  277.       277.       2.966     
   1   116   1     0     1     1  280.       280.       2.966     
   1   117   1     0     1     1  282.       282.       2.966     
   1   118   1     0     1     1  285.       285.       2.966     
   1   119   1     0     1     1  288.       288.       2.966     
   1   120   1     0     1     1  291.       291.       2.966     
   1   121   1     0     1     1  294.       294.       2.966     
   1   122   1     0     1     1  297.       297.       2.241     
                          
 THE ANALYSIS HAS COMPLETED SUCCESSFULLY
