1

   Abaqus 2023                                  Date 23-Jul-2024   Time 16:04:22
   For use by ETH ZUERICH under license from Dassault Systemes or its subsidiary.

                                                                                 
                                                                                 
 STEP    1     INCREMENT     1     STEP TIME    0.00    


                        S T E P       1     S T A T I C   A N A L Y S I S


                                                                                          

     AUTOMATIC TIME CONTROL WITH -
          A SUGGESTED INITIAL TIME INCREMENT OF                2.966E-04
          AND A TOTAL TIME PERIOD OF                            297.    
          THE MINIMUM TIME INCREMENT ALLOWED IS                2.966E-04
          THE MAXIMUM TIME INCREMENT ALLOWED IS                 2.97    

     LINEAR EQUATION SOLVER TYPE         DIRECT SPARSE

 CONVERGENCE TOLERANCE PARAMETERS FOR FORCE    
     CRITERION FOR RESIDUAL FORCE     FOR A NONLINEAR PROBLEM          5.000E-03
     CRITERION FOR DISP.    CORRECTION IN A NONLINEAR PROBLEM          1.000E-02
     INITIAL VALUE OF TIME AVERAGE FORCE                               1.000E-02
     AVERAGE FORCE     IS TIME AVERAGE FORCE    
     ALTERNATE CRIT. FOR RESIDUAL FORCE     FOR A NONLINEAR PROBLEM    2.000E-02
     CRITERION FOR ZERO FORCE     RELATIVE TO TIME AVRG. FORCE         1.000E-05
     CRITERION FOR RESIDUAL FORCE     WHEN THERE IS ZERO FLUX          1.000E-05
     CRITERION FOR DISP.    CORRECTION WHEN THERE IS ZERO FLUX         1.000E-03
     CRITERION FOR RESIDUAL FORCE     FOR A LINEAR INCREMENT           1.000E-08
     FIELD CONVERSION RATIO                                             1.00    
     CRITERION FOR ZERO FORCE     REL. TO TIME AVRG. MAX. FORCE        1.000E-05
     CRITERION FOR ZERO DISP.    RELATIVE TO CHARACTERISTIC LENGTH     1.000E-08

     VOLUMETRIC STRAIN COMPATIBILITY TOLERANCE FOR HYBRID SOLIDS       1.000E-05
     AXIAL STRAIN COMPATIBILITY TOLERANCE FOR HYBRID BEAMS             1.000E-05
     TRANS. SHEAR STRAIN COMPATIBILITY TOLERANCE FOR HYBRID BEAMS      1.000E-05
     SOFT CONTACT CONSTRAINT COMPATIBILITY TOLERANCE FOR P>P0          5.000E-03
     SOFT CONTACT CONSTRAINT COMPATIBILITY TOLERANCE FOR P=0.0         0.100    
     CONTACT FORCE ERROR TOLERANCE FOR CONVERT SDI=YES                 1.00    
     DISPLACEMENT COMPATIBILITY TOLERANCE FOR DCOUP ELEMENTS           1.000E-05
     ROTATION COMPATIBILITY TOLERANCE FOR DCOUP ELEMENTS               1.000E-05

 EQUILIBRIUM WILL BE CHECKED FOR SEVERE DISCONTINUITY ITERATIONS

 TIME INCREMENTATION CONTROL PARAMETERS:
     FIRST EQUILIBRIUM ITERATION FOR CONSECUTIVE DIVERGENCE CHECK              4
     EQUILIBRIUM ITERATION AT WHICH LOG. CONVERGENCE RATE CHECK BEGINS         8
     EQUILIBRIUM ITERATION AFTER WHICH ALTERNATE RESIDUAL IS USED              9
     MAXIMUM EQUILIBRIUM ITERATIONS ALLOWED                                   16
     EQUILIBRIUM ITERATION COUNT FOR CUT-BACK IN NEXT INCREMENT               10
     MAXIMUM EQUILIB. ITERS IN TWO INCREMENTS FOR TIME INCREMENT INCREASE      4
     MAXIMUM ITERATIONS FOR SEVERE DISCONTINUITIES                            50
     MAXIMUM ATTEMPTS ALLOWED IN AN INCREMENT                                  5
     MAXIMUM DISCON. ITERS IN TWO INCREMENTS FOR TIME INCREMENT INCREASE      50
     MAXIMUM CONTACT AUGMENTATIONS FOR *SURFACE BEHAVIOR,AUGMENTED LAGRANGE   50
     CUT-BACK FACTOR AFTER DIVERGENCE                                 0.2500    
     CUT-BACK FACTOR FOR TOO SLOW CONVERGENCE                         0.5000    
     CUT-BACK FACTOR AFTER TOO MANY EQUILIBRIUM ITERATIONS            0.7500    
     CUT-BACK FACTOR AFTER TOO MANY SEVERE DISCONTINUITY ITERATIONS   0.2500    
     CUT-BACK FACTOR AFTER PROBLEMS IN ELEMENT ASSEMBLY               0.2500    
     INCREASE FACTOR AFTER TWO INCREMENTS THAT CONVERGE QUICKLY        1.500    
     MAX. TIME INCREMENT INCREASE FACTOR ALLOWED                       1.500    
     MAX. TIME INCREMENT INCREASE FACTOR ALLOWED (DYNAMICS)            1.250    
     MAX. TIME INCREMENT INCREASE FACTOR ALLOWED (DIFFUSION)           2.000    
     MINIMUM TIME INCREMENT RATIO FOR EXTRAPOLATION TO OCCUR          0.1000    
     MAX. RATIO OF TIME INCREMENT TO STABILITY LIMIT                   1.000    
     FRACTION OF STABILITY LIMIT FOR NEW TIME INCREMENT               0.9500    
     TIME INCREMENT INCREASE FACTOR BEFORE A TIME POINT                1.000    
     GLOBAL STABILIZATION CONTROL IS NOT USED

          PRINT OF INCREMENT NUMBER, TIME, ETC., EVERY    1  INCREMENTS

     THE MAXIMUM NUMBER OF INCREMENTS IN THIS STEP IS                    1000

          LARGE DISPLACEMENT THEORY WILL BE USED

     LINEAR EXTRAPOLATION WILL BE USED

     CHARACTERISTIC ELEMENT LENGTH     0.100    

     DETAILS REGARDING ACTUAL SOLUTION WAVEFRONT REQUESTED

     DETAILED OUTPUT OF DIAGNOSTICS TO DATABASE REQUESTED

     PRINT OF INCREMENT NUMBER, TIME, ETC., TO THE MESSAGE FILE EVERY     1  INCREMENTS

     COLLECTING MODEL CONSTRAINT INFORMATION FOR OVERCONSTRAINT CHECKS

     COLLECTING STEP CONSTRAINT INFORMATION FOR OVERCONSTRAINT CHECKS


  INCREMENT     1 STARTS. ATTEMPT NUMBER  1, TIME INCREMENT  2.966E-04
 
	SYMMETRIC DIRECT SPARSE SOLVER RUNNING ON
 	1 HOST:        1 MPI RANK  x 1 THREAD
 	NUMBER OF EQUATIONS:     18
 	NUMBER OF RHS:           1
 	NUMBER OF FLOPS:         2.109e+03

     CHECK POINT  START OF SOLVER     

     CHECK POINT  END OF SOLVER       

       ELAPSED USER TIME (SEC)      =   0.0000    
       ELAPSED SYSTEM TIME (SEC)    =   0.0000    
       ELAPSED TOTAL CPU TIME (SEC) =   0.0000    
       ELAPSED WALLCLOCK TIME (SEC) =            0

               CONVERGENCE CHECKS FOR EQUILIBRIUM ITERATION     1


 AVERAGE FORCE                      1.731E-04   TIME AVG. FORCE       1.731E-04
 LARGEST SCALED RESIDUAL FORCE      1.948E-10   AT NODE          2   DOF  3
  CORRESPONDING RESIDUAL FORCE      1.948E-10
 LARGEST INCREMENT OF DISP.         1.000E-07   AT NODE          1   DOF  2
 LARGEST CORRECTION TO DISP.        1.000E-07   AT NODE          1   DOF  2
          DISP.    CORRECTION TOO LARGE COMPARED TO DISP.    INCREMENT
 
	SYMMETRIC DIRECT SPARSE SOLVER RUNNING ON
 	1 HOST:        1 MPI RANK  x 1 THREAD
 	NUMBER OF EQUATIONS:     18
 	NUMBER OF RHS:           1
 	NUMBER OF FLOPS:         2.109e+03

     CHECK POINT  START OF SOLVER     

     CHECK POINT  END OF SOLVER       

       ELAPSED USER TIME (SEC)      =   0.0000    
       ELAPSED SYSTEM TIME (SEC)    =   0.0000    
       ELAPSED TOTAL CPU TIME (SEC) =   0.0000    
       ELAPSED WALLCLOCK TIME (SEC) =            0

               CONVERGENCE CHECKS FOR EQUILIBRIUM ITERATION     2


 AVERAGE FORCE                      1.731E-04   TIME AVG. FORCE       1.731E-04
 LARGEST SCALED RESIDUAL FORCE     -5.469E-20   AT NODE          5   DOF  3
  CORRESPONDING RESIDUAL FORCE     -5.469E-20
 LARGEST INCREMENT OF DISP.         1.000E-07   AT NODE          1   DOF  2
 LARGEST CORRECTION TO DISP.        1.950E-14   AT NODE          2   DOF  3
          THE FORCE     EQUILIBRIUM EQUATIONS HAVE CONVERGED

 ITERATION SUMMARY FOR THE INCREMENT:   2 TOTAL ITERATIONS, OF WHICH
   0 ARE SEVERE DISCONTINUITY ITERATIONS AND  2 ARE EQUILIBRIUM ITERATIONS.

 TIME INCREMENT COMPLETED  2.966E-04,  FRACTION OF STEP COMPLETED  1.000E-06
 STEP TIME COMPLETED       2.966E-04,  TOTAL TIME COMPLETED        2.966E-04


  INCREMENT     2 STARTS. ATTEMPT NUMBER  1, TIME INCREMENT  2.966E-04
 
	SYMMETRIC DIRECT SPARSE SOLVER RUNNING ON
 	1 HOST:        1 MPI RANK  x 1 THREAD
 	NUMBER OF EQUATIONS:     18
 	NUMBER OF RHS:           1
 	NUMBER OF FLOPS:         2.109e+03

     CHECK POINT  START OF SOLVER     

     CHECK POINT  END OF SOLVER       

       ELAPSED USER TIME (SEC)      =   0.0000    
       ELAPSED SYSTEM TIME (SEC)    =   0.0000    
       ELAPSED TOTAL CPU TIME (SEC) =   0.0000    
       ELAPSED WALLCLOCK TIME (SEC) =            0

               CONVERGENCE CHECKS FOR EQUILIBRIUM ITERATION     1


 AVERAGE FORCE                      1.039E-03   TIME AVG. FORCE       6.059E-04
 LARGEST SCALED RESIDUAL FORCE      1.347E-19   AT NODE          3   DOF  1
  CORRESPONDING RESIDUAL FORCE      1.347E-19
 LARGEST INCREMENT OF DISP.         1.000E-07   AT NODE          1   DOF  2
 LARGEST CORRECTION TO DISP.        3.900E-14   AT NODE          1   DOF  1
          THE FORCE     EQUILIBRIUM RESPONSE WAS LINEAR IN THIS INCREMENT
          TIME INCREMENT MAY NOW INCREASE TO    4.449E-04

 ITERATION SUMMARY FOR THE INCREMENT:   1 TOTAL ITERATIONS, OF WHICH
   0 ARE SEVERE DISCONTINUITY ITERATIONS AND  1 ARE EQUILIBRIUM ITERATIONS.

 TIME INCREMENT COMPLETED  2.966E-04,  FRACTION OF STEP COMPLETED  2.000E-06
 STEP TIME COMPLETED       5.932E-04,  TOTAL TIME COMPLETED        5.932E-04


  INCREMENT     3 STARTS. ATTEMPT NUMBER  1, TIME INCREMENT  4.449E-04
 
	SYMMETRIC DIRECT SPARSE SOLVER RUNNING ON
 	1 HOST:        1 MPI RANK  x 1 THREAD
 	NUMBER OF EQUATIONS:     18
 	NUMBER OF RHS:           1
 	NUMBER OF FLOPS:         2.109e+03

     CHECK POINT  START OF SOLVER     

     CHECK POINT  END OF SOLVER       

       ELAPSED USER TIME (SEC)      =   0.0000    
       ELAPSED SYSTEM TIME (SEC)    =   0.0000    
       ELAPSED TOTAL CPU TIME (SEC) =   0.0000    
       ELAPSED WALLCLOCK TIME (SEC) =            0

               CONVERGENCE CHECKS FOR EQUILIBRIUM ITERATION     1


 AVERAGE FORCE                      1.818E-03   TIME AVG. FORCE       1.010E-03
 LARGEST SCALED RESIDUAL FORCE      1.801E-19   AT NODE          5   DOF  3
  CORRESPONDING RESIDUAL FORCE      1.801E-19
 LARGEST INCREMENT OF DISP.         1.500E-07   AT NODE          1   DOF  2
 LARGEST CORRECTION TO DISP.        7.312E-14   AT NODE          3   DOF  1
          THE FORCE     EQUILIBRIUM RESPONSE WAS LINEAR IN THIS INCREMENT
          TIME INCREMENT MAY NOW INCREASE TO    6.674E-04

 ITERATION SUMMARY FOR THE INCREMENT:   1 TOTAL ITERATIONS, OF WHICH
   0 ARE SEVERE DISCONTINUITY ITERATIONS AND  1 ARE EQUILIBRIUM ITERATIONS.

 TIME INCREMENT COMPLETED  4.449E-04,  FRACTION OF STEP COMPLETED  3.500E-06
 STEP TIME COMPLETED       1.038E-03,  TOTAL TIME COMPLETED        1.038E-03


  INCREMENT     4 STARTS. ATTEMPT NUMBER  1, TIME INCREMENT  6.674E-04
 
	SYMMETRIC DIRECT SPARSE SOLVER RUNNING ON
 	1 HOST:        1 MPI RANK  x 1 THREAD
 	NUMBER OF EQUATIONS:     18
 	NUMBER OF RHS:           1
 	NUMBER OF FLOPS:         2.109e+03

     CHECK POINT  START OF SOLVER     

     CHECK POINT  END OF SOLVER       

       ELAPSED USER TIME (SEC)      =   0.0000    
       ELAPSED SYSTEM TIME (SEC)    =   0.0000    
       ELAPSED TOTAL CPU TIME (SEC) =   0.0000    
       ELAPSED WALLCLOCK TIME (SEC) =            0

               CONVERGENCE CHECKS FOR EQUILIBRIUM ITERATION     1


 AVERAGE FORCE                      2.986E-03   TIME AVG. FORCE       1.504E-03
 LARGEST SCALED RESIDUAL FORCE      4.734E-19   AT NODE          2   DOF  3
  CORRESPONDING RESIDUAL FORCE      4.734E-19
 LARGEST INCREMENT OF DISP.         2.250E-07   AT NODE          1   DOF  2
 LARGEST CORRECTION TO DISP.        1.645E-13   AT NODE          1   DOF  3
          THE FORCE     EQUILIBRIUM RESPONSE WAS LINEAR IN THIS INCREMENT
          TIME INCREMENT MAY NOW INCREASE TO    1.001E-03

 ITERATION SUMMARY FOR THE INCREMENT:   1 TOTAL ITERATIONS, OF WHICH
   0 ARE SEVERE DISCONTINUITY ITERATIONS AND  1 ARE EQUILIBRIUM ITERATIONS.

 TIME INCREMENT COMPLETED  6.674E-04,  FRACTION OF STEP COMPLETED  5.750E-06
 STEP TIME COMPLETED       1.705E-03,  TOTAL TIME COMPLETED        1.705E-03


  INCREMENT     5 STARTS. ATTEMPT NUMBER  1, TIME INCREMENT  1.001E-03
 
	SYMMETRIC DIRECT SPARSE SOLVER RUNNING ON
 	1 HOST:        1 MPI RANK  x 1 THREAD
 	NUMBER OF EQUATIONS:     18
 	NUMBER OF RHS:           1
 	NUMBER OF FLOPS:         2.109e+03

     CHECK POINT  START OF SOLVER     

     CHECK POINT  END OF SOLVER       

       ELAPSED USER TIME (SEC)      =   0.0000    
       ELAPSED SYSTEM TIME (SEC)    =   0.0000    
       ELAPSED TOTAL CPU TIME (SEC) =   0.0000    
       ELAPSED WALLCLOCK TIME (SEC) =            0

               CONVERGENCE CHECKS FOR EQUILIBRIUM ITERATION     1


 AVERAGE FORCE                      4.739E-03   TIME AVG. FORCE       2.151E-03
 LARGEST SCALED RESIDUAL FORCE     -2.830E-19   AT NODE          6   DOF  3
  CORRESPONDING RESIDUAL FORCE     -2.830E-19
 LARGEST INCREMENT OF DISP.         3.375E-07   AT NODE          1   DOF  2
 LARGEST CORRECTION TO DISP.        3.702E-13   AT NODE          1   DOF  3
          THE FORCE     EQUILIBRIUM RESPONSE WAS LINEAR IN THIS INCREMENT
          TIME INCREMENT MAY NOW INCREASE TO    1.502E-03

 ITERATION SUMMARY FOR THE INCREMENT:   1 TOTAL ITERATIONS, OF WHICH
   0 ARE SEVERE DISCONTINUITY ITERATIONS AND  1 ARE EQUILIBRIUM ITERATIONS.

 TIME INCREMENT COMPLETED  1.001E-03,  FRACTION OF STEP COMPLETED  9.125E-06
 STEP TIME COMPLETED       2.706E-03,  TOTAL TIME COMPLETED        2.706E-03


  INCREMENT     6 STARTS. ATTEMPT NUMBER  1, TIME INCREMENT  1.502E-03
 
	SYMMETRIC DIRECT SPARSE SOLVER RUNNING ON
 	1 HOST:        1 MPI RANK  x 1 THREAD
 	NUMBER OF EQUATIONS:     18
 	NUMBER OF RHS:           1
 	NUMBER OF FLOPS:         2.109e+03

     CHECK POINT  START OF SOLVER     

     CHECK POINT  END OF SOLVER       

       ELAPSED USER TIME (SEC)      =   0.0000    
       ELAPSED SYSTEM TIME (SEC)    =   0.0000    
       ELAPSED TOTAL CPU TIME (SEC) =   0.0000    
       ELAPSED WALLCLOCK TIME (SEC) =            0

               CONVERGENCE CHECKS FOR EQUILIBRIUM ITERATION     1


 AVERAGE FORCE                      7.368E-03   TIME AVG. FORCE       3.021E-03
 LARGEST SCALED RESIDUAL FORCE      9.412E-19   AT NODE          4   DOF  1
  CORRESPONDING RESIDUAL FORCE      9.412E-19
 LARGEST INCREMENT OF DISP.         5.062E-07   AT NODE          1   DOF  2
 LARGEST CORRECTION TO DISP.        8.329E-13   AT NODE          1   DOF  1
          THE FORCE     EQUILIBRIUM RESPONSE WAS LINEAR IN THIS INCREMENT
          TIME INCREMENT MAY NOW INCREASE TO    2.252E-03

 ITERATION SUMMARY FOR THE INCREMENT:   1 TOTAL ITERATIONS, OF WHICH
   0 ARE SEVERE DISCONTINUITY ITERATIONS AND  1 ARE EQUILIBRIUM ITERATIONS.

 TIME INCREMENT COMPLETED  1.502E-03,  FRACTION OF STEP COMPLETED  1.419E-05
 STEP TIME COMPLETED       4.208E-03,  TOTAL TIME COMPLETED        4.208E-03


  INCREMENT     7 STARTS. ATTEMPT NUMBER  1, TIME INCREMENT  2.252E-03
 
	SYMMETRIC DIRECT SPARSE SOLVER RUNNING ON
 	1 HOST:        1 MPI RANK  x 1 THREAD
 	NUMBER OF EQUATIONS:     18
 	NUMBER OF RHS:           1
 	NUMBER OF FLOPS:         2.109e+03

     CHECK POINT  START OF SOLVER     

     CHECK POINT  END OF SOLVER       

       ELAPSED USER TIME (SEC)      =   0.0000    
       ELAPSED SYSTEM TIME (SEC)    =   0.0000    
       ELAPSED TOTAL CPU TIME (SEC) =   0.0000    
       ELAPSED WALLCLOCK TIME (SEC) =            0

               CONVERGENCE CHECKS FOR EQUILIBRIUM ITERATION     1


 AVERAGE FORCE                      1.131E-02   TIME AVG. FORCE       4.205E-03
 LARGEST SCALED RESIDUAL FORCE     -1.129E-18   AT NODE          1   DOF  1
  CORRESPONDING RESIDUAL FORCE     -1.129E-18
 LARGEST INCREMENT OF DISP.         7.594E-07   AT NODE          1   DOF  2
 LARGEST CORRECTION TO DISP.        1.874E-12   AT NODE          2   DOF  1
          THE FORCE     EQUILIBRIUM RESPONSE WAS LINEAR IN THIS INCREMENT
          TIME INCREMENT MAY NOW INCREASE TO    3.378E-03

 ITERATION SUMMARY FOR THE INCREMENT:   1 TOTAL ITERATIONS, OF WHICH
   0 ARE SEVERE DISCONTINUITY ITERATIONS AND  1 ARE EQUILIBRIUM ITERATIONS.

 TIME INCREMENT COMPLETED  2.252E-03,  FRACTION OF STEP COMPLETED  2.178E-05
 STEP TIME COMPLETED       6.460E-03,  TOTAL TIME COMPLETED        6.460E-03


  INCREMENT     8 STARTS. ATTEMPT NUMBER  1, TIME INCREMENT  3.378E-03
 
	SYMMETRIC DIRECT SPARSE SOLVER RUNNING ON
 	1 HOST:        1 MPI RANK  x 1 THREAD
 	NUMBER OF EQUATIONS:     18
 	NUMBER OF RHS:           1
 	NUMBER OF FLOPS:         2.109e+03

     CHECK POINT  START OF SOLVER     

     CHECK POINT  END OF SOLVER       

       ELAPSED USER TIME (SEC)      =   0.0000    
       ELAPSED SYSTEM TIME (SEC)    =   0.0000    
       ELAPSED TOTAL CPU TIME (SEC) =   0.0000    
       ELAPSED WALLCLOCK TIME (SEC) =            0

               CONVERGENCE CHECKS FOR EQUILIBRIUM ITERATION     1


 AVERAGE FORCE                      1.723E-02   TIME AVG. FORCE       5.833E-03
 LARGEST SCALED RESIDUAL FORCE     -6.695E-19   AT NODE          2   DOF  1
  CORRESPONDING RESIDUAL FORCE     -6.695E-19
 LARGEST INCREMENT OF DISP.         1.139E-06   AT NODE          1   DOF  2
 LARGEST CORRECTION TO DISP.        4.217E-12   AT NODE          6   DOF  3
          THE FORCE     EQUILIBRIUM RESPONSE WAS LINEAR IN THIS INCREMENT
          TIME INCREMENT MAY NOW INCREASE TO    5.068E-03

 ITERATION SUMMARY FOR THE INCREMENT:   1 TOTAL ITERATIONS, OF WHICH
   0 ARE SEVERE DISCONTINUITY ITERATIONS AND  1 ARE EQUILIBRIUM ITERATIONS.

 TIME INCREMENT COMPLETED  3.378E-03,  FRACTION OF STEP COMPLETED  3.317E-05
 STEP TIME COMPLETED       9.839E-03,  TOTAL TIME COMPLETED        9.839E-03


  INCREMENT     9 STARTS. ATTEMPT NUMBER  1, TIME INCREMENT  5.068E-03
 
	SYMMETRIC DIRECT SPARSE SOLVER RUNNING ON
 	1 HOST:        1 MPI RANK  x 1 THREAD
 	NUMBER OF EQUATIONS:     18
 	NUMBER OF RHS:           1
 	NUMBER OF FLOPS:         2.109e+03

     CHECK POINT  START OF SOLVER     

     CHECK POINT  END OF SOLVER       

       ELAPSED USER TIME (SEC)      =   0.0000    
       ELAPSED SYSTEM TIME (SEC)    =   0.0000    
       ELAPSED TOTAL CPU TIME (SEC) =   0.0000    
       ELAPSED WALLCLOCK TIME (SEC) =            0

               CONVERGENCE CHECKS FOR EQUILIBRIUM ITERATION     1


 AVERAGE FORCE                      2.610E-02   TIME AVG. FORCE       8.085E-03
 LARGEST SCALED RESIDUAL FORCE      1.101E-17   AT NODE          2   DOF  3
  CORRESPONDING RESIDUAL FORCE      1.101E-17
 LARGEST INCREMENT OF DISP.         1.709E-06   AT NODE          1   DOF  2
 LARGEST CORRECTION TO DISP.        9.487E-12   AT NODE          1   DOF  1
          THE FORCE     EQUILIBRIUM RESPONSE WAS LINEAR IN THIS INCREMENT
          TIME INCREMENT MAY NOW INCREASE TO    7.602E-03

 ITERATION SUMMARY FOR THE INCREMENT:   1 TOTAL ITERATIONS, OF WHICH
   0 ARE SEVERE DISCONTINUITY ITERATIONS AND  1 ARE EQUILIBRIUM ITERATIONS.

 TIME INCREMENT COMPLETED  5.068E-03,  FRACTION OF STEP COMPLETED  5.026E-05
 STEP TIME COMPLETED       1.491E-02,  TOTAL TIME COMPLETED        1.491E-02


  INCREMENT    10 STARTS. ATTEMPT NUMBER  1, TIME INCREMENT  7.602E-03
 
	SYMMETRIC DIRECT SPARSE SOLVER RUNNING ON
 	1 HOST:        1 MPI RANK  x 1 THREAD
 	NUMBER OF EQUATIONS:     18
 	NUMBER OF RHS:           1
 	NUMBER OF FLOPS:         2.109e+03

     CHECK POINT  START OF SOLVER     

     CHECK POINT  END OF SOLVER       

       ELAPSED USER TIME (SEC)      =   0.0000    
       ELAPSED SYSTEM TIME (SEC)    =   0.0000    
       ELAPSED TOTAL CPU TIME (SEC) =   0.0000    
       ELAPSED WALLCLOCK TIME (SEC) =            0

               CONVERGENCE CHECKS FOR EQUILIBRIUM ITERATION     1


 AVERAGE FORCE                      3.941E-02   TIME AVG. FORCE       1.122E-02
 LARGEST SCALED RESIDUAL FORCE      2.463E-17   AT NODE          4   DOF  1
  CORRESPONDING RESIDUAL FORCE      2.463E-17
 LARGEST INCREMENT OF DISP.         2.563E-06   AT NODE          1   DOF  2
 LARGEST CORRECTION TO DISP.        2.134E-11   AT NODE          2   DOF  3
          THE FORCE     EQUILIBRIUM RESPONSE WAS LINEAR IN THIS INCREMENT
          TIME INCREMENT MAY NOW INCREASE TO    1.140E-02

 ITERATION SUMMARY FOR THE INCREMENT:   1 TOTAL ITERATIONS, OF WHICH
   0 ARE SEVERE DISCONTINUITY ITERATIONS AND  1 ARE EQUILIBRIUM ITERATIONS.

 TIME INCREMENT COMPLETED  7.602E-03,  FRACTION OF STEP COMPLETED  7.589E-05
 STEP TIME COMPLETED       2.251E-02,  TOTAL TIME COMPLETED        2.251E-02


  INCREMENT    11 STARTS. ATTEMPT NUMBER  1, TIME INCREMENT  1.140E-02
 
	SYMMETRIC DIRECT SPARSE SOLVER RUNNING ON
 	1 HOST:        1 MPI RANK  x 1 THREAD
 	NUMBER OF EQUATIONS:     18
 	NUMBER OF RHS:           1
 	NUMBER OF FLOPS:         2.109e+03

     CHECK POINT  START OF SOLVER     

     CHECK POINT  END OF SOLVER       

       ELAPSED USER TIME (SEC)      =   0.0000    
       ELAPSED SYSTEM TIME (SEC)    =   0.0000    
       ELAPSED TOTAL CPU TIME (SEC) =   0.0000    
       ELAPSED WALLCLOCK TIME (SEC) =            0

               CONVERGENCE CHECKS FOR EQUILIBRIUM ITERATION     1


 AVERAGE FORCE                      5.937E-02   TIME AVG. FORCE       1.560E-02
 LARGEST SCALED RESIDUAL FORCE      1.211E-16   AT NODE          2   DOF  3
  CORRESPONDING RESIDUAL FORCE      1.211E-16
 LARGEST INCREMENT OF DISP.         3.844E-06   AT NODE          1   DOF  2
 LARGEST CORRECTION TO DISP.        4.802E-11   AT NODE          2   DOF  1
          THE FORCE     EQUILIBRIUM RESPONSE WAS LINEAR IN THIS INCREMENT
          TIME INCREMENT MAY NOW INCREASE TO    1.710E-02

 ITERATION SUMMARY FOR THE INCREMENT:   1 TOTAL ITERATIONS, OF WHICH
   0 ARE SEVERE DISCONTINUITY ITERATIONS AND  1 ARE EQUILIBRIUM ITERATIONS.

 TIME INCREMENT COMPLETED  1.140E-02,  FRACTION OF STEP COMPLETED  1.143E-04
 STEP TIME COMPLETED       3.391E-02,  TOTAL TIME COMPLETED        3.391E-02


  INCREMENT    12 STARTS. ATTEMPT NUMBER  1, TIME INCREMENT  1.710E-02
 
	SYMMETRIC DIRECT SPARSE SOLVER RUNNING ON
 	1 HOST:        1 MPI RANK  x 1 THREAD
 	NUMBER OF EQUATIONS:     18
 	NUMBER OF RHS:           1
 	NUMBER OF FLOPS:         2.109e+03

     CHECK POINT  START OF SOLVER     

     CHECK POINT  END OF SOLVER       

       ELAPSED USER TIME (SEC)      =   0.0000    
       ELAPSED SYSTEM TIME (SEC)    =   0.0000    
       ELAPSED TOTAL CPU TIME (SEC) =   0.0000    
       ELAPSED WALLCLOCK TIME (SEC) =            0

               CONVERGENCE CHECKS FOR EQUILIBRIUM ITERATION     1


 AVERAGE FORCE                      8.931E-02   TIME AVG. FORCE       2.174E-02
 LARGEST SCALED RESIDUAL FORCE      6.767E-16   AT NODE          5   DOF  3
  CORRESPONDING RESIDUAL FORCE      6.767E-16
 LARGEST INCREMENT OF DISP.         5.767E-06   AT NODE          1   DOF  2
 LARGEST CORRECTION TO DISP.        1.080E-10   AT NODE          2   DOF  3
          THE FORCE     EQUILIBRIUM RESPONSE WAS LINEAR IN THIS INCREMENT
          TIME INCREMENT MAY NOW INCREASE TO    2.566E-02

 ITERATION SUMMARY FOR THE INCREMENT:   1 TOTAL ITERATIONS, OF WHICH
   0 ARE SEVERE DISCONTINUITY ITERATIONS AND  1 ARE EQUILIBRIUM ITERATIONS.

 TIME INCREMENT COMPLETED  1.710E-02,  FRACTION OF STEP COMPLETED  1.720E-04
 STEP TIME COMPLETED       5.101E-02,  TOTAL TIME COMPLETED        5.101E-02


  INCREMENT    13 STARTS. ATTEMPT NUMBER  1, TIME INCREMENT  2.566E-02
 
	SYMMETRIC DIRECT SPARSE SOLVER RUNNING ON
 	1 HOST:        1 MPI RANK  x 1 THREAD
 	NUMBER OF EQUATIONS:     18
 	NUMBER OF RHS:           1
 	NUMBER OF FLOPS:         2.109e+03

     CHECK POINT  START OF SOLVER     

     CHECK POINT  END OF SOLVER       

       ELAPSED USER TIME (SEC)      =   0.0000    
       ELAPSED SYSTEM TIME (SEC)    =   0.0000    
       ELAPSED TOTAL CPU TIME (SEC) =   0.0000    
       ELAPSED WALLCLOCK TIME (SEC) =            0

               CONVERGENCE CHECKS FOR EQUILIBRIUM ITERATION     1


 AVERAGE FORCE                      0.134       TIME AVG. FORCE       3.039E-02
 LARGEST SCALED RESIDUAL FORCE      3.349E-15   AT NODE          1   DOF  1
  CORRESPONDING RESIDUAL FORCE      3.349E-15
 LARGEST INCREMENT OF DISP.         8.650E-06   AT NODE          1   DOF  2
 LARGEST CORRECTION TO DISP.        2.431E-10   AT NODE          1   DOF  3
          THE FORCE     EQUILIBRIUM RESPONSE WAS LINEAR IN THIS INCREMENT
          TIME INCREMENT MAY NOW INCREASE TO    3.848E-02

 ITERATION SUMMARY FOR THE INCREMENT:   1 TOTAL ITERATIONS, OF WHICH
   0 ARE SEVERE DISCONTINUITY ITERATIONS AND  1 ARE EQUILIBRIUM ITERATIONS.

 TIME INCREMENT COMPLETED  2.566E-02,  FRACTION OF STEP COMPLETED  2.585E-04
 STEP TIME COMPLETED       7.667E-02,  TOTAL TIME COMPLETED        7.667E-02


  INCREMENT    14 STARTS. ATTEMPT NUMBER  1, TIME INCREMENT  3.848E-02
 
	SYMMETRIC DIRECT SPARSE SOLVER RUNNING ON
 	1 HOST:        1 MPI RANK  x 1 THREAD
 	NUMBER OF EQUATIONS:     18
 	NUMBER OF RHS:           1
 	NUMBER OF FLOPS:         2.109e+03

     CHECK POINT  START OF SOLVER     

     CHECK POINT  END OF SOLVER       

       ELAPSED USER TIME (SEC)      =   0.0000    
       ELAPSED SYSTEM TIME (SEC)    =   0.0000    
       ELAPSED TOTAL CPU TIME (SEC) =   0.0000    
       ELAPSED WALLCLOCK TIME (SEC) =            0

               CONVERGENCE CHECKS FOR EQUILIBRIUM ITERATION     1


 AVERAGE FORCE                      0.202       TIME AVG. FORCE       4.262E-02
 LARGEST SCALED RESIDUAL FORCE      1.699E-14   AT NODE          2   DOF  1
  CORRESPONDING RESIDUAL FORCE      1.699E-14
 LARGEST INCREMENT OF DISP.         1.297E-05   AT NODE          1   DOF  2
 LARGEST CORRECTION TO DISP.        5.468E-10   AT NODE          1   DOF  1
          THE FORCE     EQUILIBRIUM RESPONSE WAS LINEAR IN THIS INCREMENT
          TIME INCREMENT MAY NOW INCREASE TO    5.772E-02

 ITERATION SUMMARY FOR THE INCREMENT:   1 TOTAL ITERATIONS, OF WHICH
   0 ARE SEVERE DISCONTINUITY ITERATIONS AND  1 ARE EQUILIBRIUM ITERATIONS.

 TIME INCREMENT COMPLETED  3.848E-02,  FRACTION OF STEP COMPLETED  3.882E-04
 STEP TIME COMPLETED       0.115    ,  TOTAL TIME COMPLETED        0.115    


  INCREMENT    15 STARTS. ATTEMPT NUMBER  1, TIME INCREMENT  5.772E-02
 
	SYMMETRIC DIRECT SPARSE SOLVER RUNNING ON
 	1 HOST:        1 MPI RANK  x 1 THREAD
 	NUMBER OF EQUATIONS:     18
 	NUMBER OF RHS:           1
 	NUMBER OF FLOPS:         2.109e+03

     CHECK POINT  START OF SOLVER     

     CHECK POINT  END OF SOLVER       

       ELAPSED USER TIME (SEC)      =   0.0000    
       ELAPSED SYSTEM TIME (SEC)    =   0.0000    
       ELAPSED TOTAL CPU TIME (SEC) =   0.0000    
       ELAPSED WALLCLOCK TIME (SEC) =            0

               CONVERGENCE CHECKS FOR EQUILIBRIUM ITERATION     1


 AVERAGE FORCE                      0.303       TIME AVG. FORCE       5.994E-02
 LARGEST SCALED RESIDUAL FORCE      8.606E-14   AT NODE          2   DOF  3
  CORRESPONDING RESIDUAL FORCE      8.606E-14
 LARGEST INCREMENT OF DISP.         1.946E-05   AT NODE          1   DOF  2
 LARGEST CORRECTION TO DISP.        1.230E-09   AT NODE          2   DOF  1
          THE FORCE     EQUILIBRIUM RESPONSE WAS LINEAR IN THIS INCREMENT
          TIME INCREMENT MAY NOW INCREASE TO    8.659E-02

 ITERATION SUMMARY FOR THE INCREMENT:   1 TOTAL ITERATIONS, OF WHICH
   0 ARE SEVERE DISCONTINUITY ITERATIONS AND  1 ARE EQUILIBRIUM ITERATIONS.

 TIME INCREMENT COMPLETED  5.772E-02,  FRACTION OF STEP COMPLETED  5.829E-04
 STEP TIME COMPLETED       0.173    ,  TOTAL TIME COMPLETED        0.173    


  INCREMENT    16 STARTS. ATTEMPT NUMBER  1, TIME INCREMENT  8.659E-02
 
	SYMMETRIC DIRECT SPARSE SOLVER RUNNING ON
 	1 HOST:        1 MPI RANK  x 1 THREAD
 	NUMBER OF EQUATIONS:     18
 	NUMBER OF RHS:           1
 	NUMBER OF FLOPS:         2.109e+03

     CHECK POINT  START OF SOLVER     

     CHECK POINT  END OF SOLVER       

       ELAPSED USER TIME (SEC)      =   0.0000    
       ELAPSED SYSTEM TIME (SEC)    =   0.0000    
       ELAPSED TOTAL CPU TIME (SEC) =   0.0000    
       ELAPSED WALLCLOCK TIME (SEC) =            0

               CONVERGENCE CHECKS FOR EQUILIBRIUM ITERATION     1


 AVERAGE FORCE                      0.454       TIME AVG. FORCE       8.457E-02
 LARGEST SCALED RESIDUAL FORCE      4.354E-13   AT NODE          4   DOF  1
  CORRESPONDING RESIDUAL FORCE      4.354E-13
 LARGEST INCREMENT OF DISP.         2.919E-05   AT NODE          1   DOF  2
 LARGEST CORRECTION TO DISP.        2.766E-09   AT NODE          2   DOF  3
          THE FORCE     EQUILIBRIUM RESPONSE WAS LINEAR IN THIS INCREMENT
          TIME INCREMENT MAY NOW INCREASE TO    0.130    

 ITERATION SUMMARY FOR THE INCREMENT:   1 TOTAL ITERATIONS, OF WHICH
   0 ARE SEVERE DISCONTINUITY ITERATIONS AND  1 ARE EQUILIBRIUM ITERATIONS.

 TIME INCREMENT COMPLETED  8.659E-02,  FRACTION OF STEP COMPLETED  8.748E-04
 STEP TIME COMPLETED       0.259    ,  TOTAL TIME COMPLETED        0.259    


  INCREMENT    17 STARTS. ATTEMPT NUMBER  1, TIME INCREMENT  0.130    
 
	SYMMETRIC DIRECT SPARSE SOLVER RUNNING ON
 	1 HOST:        1 MPI RANK  x 1 THREAD
 	NUMBER OF EQUATIONS:     18
 	NUMBER OF RHS:           1
 	NUMBER OF FLOPS:         2.109e+03

     CHECK POINT  START OF SOLVER     

     CHECK POINT  END OF SOLVER       

       ELAPSED USER TIME (SEC)      =   0.0000    
       ELAPSED SYSTEM TIME (SEC)    =   0.0000    
       ELAPSED TOTAL CPU TIME (SEC) =   0.0000    
       ELAPSED WALLCLOCK TIME (SEC) =            0

               CONVERGENCE CHECKS FOR EQUILIBRIUM ITERATION     1


 AVERAGE FORCE                      0.681       TIME AVG. FORCE       0.120    
 LARGEST SCALED RESIDUAL FORCE      2.203E-12   AT NODE          2   DOF  1
  CORRESPONDING RESIDUAL FORCE      2.203E-12
 LARGEST INCREMENT OF DISP.         4.379E-05   AT NODE          1   DOF  2
 LARGEST CORRECTION TO DISP.        6.219E-09   AT NODE          2   DOF  1
          THE FORCE     EQUILIBRIUM RESPONSE WAS LINEAR IN THIS INCREMENT
          TIME INCREMENT MAY NOW INCREASE TO    0.195    

 ITERATION SUMMARY FOR THE INCREMENT:   1 TOTAL ITERATIONS, OF WHICH
   0 ARE SEVERE DISCONTINUITY ITERATIONS AND  1 ARE EQUILIBRIUM ITERATIONS.

 TIME INCREMENT COMPLETED  0.130    ,  FRACTION OF STEP COMPLETED  1.313E-03
 STEP TIME COMPLETED       0.389    ,  TOTAL TIME COMPLETED        0.389    


  INCREMENT    18 STARTS. ATTEMPT NUMBER  1, TIME INCREMENT  0.195    
 
	SYMMETRIC DIRECT SPARSE SOLVER RUNNING ON
 	1 HOST:        1 MPI RANK  x 1 THREAD
 	NUMBER OF EQUATIONS:     18
 	NUMBER OF RHS:           1
 	NUMBER OF FLOPS:         2.109e+03

     CHECK POINT  START OF SOLVER     

     CHECK POINT  END OF SOLVER       

       ELAPSED USER TIME (SEC)      =   0.0000    
       ELAPSED SYSTEM TIME (SEC)    =   0.0000    
       ELAPSED TOTAL CPU TIME (SEC) =   0.0000    
       ELAPSED WALLCLOCK TIME (SEC) =            0

               CONVERGENCE CHECKS FOR EQUILIBRIUM ITERATION     1


 AVERAGE FORCE                       1.02       TIME AVG. FORCE       0.170    
 LARGEST SCALED RESIDUAL FORCE      1.114E-11   AT NODE          1   DOF  1
  CORRESPONDING RESIDUAL FORCE      1.114E-11
 LARGEST INCREMENT OF DISP.         6.568E-05   AT NODE          1   DOF  2
 LARGEST CORRECTION TO DISP.        1.398E-08   AT NODE          3   DOF  1
          THE FORCE     EQUILIBRIUM RESPONSE WAS LINEAR IN THIS INCREMENT
          TIME INCREMENT MAY NOW INCREASE TO    0.292    

 ITERATION SUMMARY FOR THE INCREMENT:   1 TOTAL ITERATIONS, OF WHICH
   0 ARE SEVERE DISCONTINUITY ITERATIONS AND  1 ARE EQUILIBRIUM ITERATIONS.

 TIME INCREMENT COMPLETED  0.195    ,  FRACTION OF STEP COMPLETED  1.970E-03
 STEP TIME COMPLETED       0.584    ,  TOTAL TIME COMPLETED        0.584    


  INCREMENT    19 STARTS. ATTEMPT NUMBER  1, TIME INCREMENT  0.292    
 
	SYMMETRIC DIRECT SPARSE SOLVER RUNNING ON
 	1 HOST:        1 MPI RANK  x 1 THREAD
 	NUMBER OF EQUATIONS:     18
 	NUMBER OF RHS:           1
 	NUMBER OF FLOPS:         2.109e+03

     CHECK POINT  START OF SOLVER     

     CHECK POINT  END OF SOLVER       

       ELAPSED USER TIME (SEC)      =   0.0000    
       ELAPSED SYSTEM TIME (SEC)    =   0.0000    
       ELAPSED TOTAL CPU TIME (SEC) =   0.0000    
       ELAPSED WALLCLOCK TIME (SEC) =            0

               CONVERGENCE CHECKS FOR EQUILIBRIUM ITERATION     1


 AVERAGE FORCE                      0.391       TIME AVG. FORCE       0.181    
 LARGEST SCALED RESIDUAL FORCE     -4.186E-04   AT NODE          6   DOF  3
  CORRESPONDING RESIDUAL FORCE     -4.186E-04
 LARGEST INCREMENT OF DISP.         9.853E-05   AT NODE          1   DOF  2
 LARGEST CORRECTION TO DISP.       -1.700E-05   AT NODE          6   DOF  3
 ESTIMATE OF DISP.    CORRECTION   -5.549E-08
 FORCE     EQUILIB. ACCEPTED BASED ON SMALL RESIDUAL AND ESTIMATED CORRECTION
          TIME INCREMENT MAY NOW INCREASE TO    0.438    

 ITERATION SUMMARY FOR THE INCREMENT:   1 TOTAL ITERATIONS, OF WHICH
   0 ARE SEVERE DISCONTINUITY ITERATIONS AND  1 ARE EQUILIBRIUM ITERATIONS.

 TIME INCREMENT COMPLETED  0.292    ,  FRACTION OF STEP COMPLETED  2.955E-03
 STEP TIME COMPLETED       0.876    ,  TOTAL TIME COMPLETED        0.876    


  INCREMENT    20 STARTS. ATTEMPT NUMBER  1, TIME INCREMENT  0.438    
 
	SYMMETRIC DIRECT SPARSE SOLVER RUNNING ON
 	1 HOST:        1 MPI RANK  x 1 THREAD
 	NUMBER OF EQUATIONS:     18
 	NUMBER OF RHS:           1
 	NUMBER OF FLOPS:         2.109e+03

     CHECK POINT  START OF SOLVER     

     CHECK POINT  END OF SOLVER       

       ELAPSED USER TIME (SEC)      =   0.0000    
       ELAPSED SYSTEM TIME (SEC)    =   0.0000    
       ELAPSED TOTAL CPU TIME (SEC) =   0.0000    
       ELAPSED WALLCLOCK TIME (SEC) =            0

               CONVERGENCE CHECKS FOR EQUILIBRIUM ITERATION     1


 AVERAGE FORCE                      0.410       TIME AVG. FORCE       0.193    
 LARGEST SCALED RESIDUAL FORCE     -5.572E-05   AT NODE          6   DOF  3
  CORRESPONDING RESIDUAL FORCE     -5.572E-05
 LARGEST INCREMENT OF DISP.         1.478E-04   AT NODE          1   DOF  2
 LARGEST CORRECTION TO DISP.       -8.230E-06   AT NODE          2   DOF  3
 ESTIMATE OF DISP.    CORRECTION   -7.813E-09
 FORCE     EQUILIB. ACCEPTED BASED ON SMALL RESIDUAL AND ESTIMATED CORRECTION
          TIME INCREMENT MAY NOW INCREASE TO    0.658    

 ITERATION SUMMARY FOR THE INCREMENT:   1 TOTAL ITERATIONS, OF WHICH
   0 ARE SEVERE DISCONTINUITY ITERATIONS AND  1 ARE EQUILIBRIUM ITERATIONS.

 TIME INCREMENT COMPLETED  0.438    ,  FRACTION OF STEP COMPLETED  4.433E-03
 STEP TIME COMPLETED        1.31    ,  TOTAL TIME COMPLETED         1.31    


  INCREMENT    21 STARTS. ATTEMPT NUMBER  1, TIME INCREMENT  0.658    
 
	SYMMETRIC DIRECT SPARSE SOLVER RUNNING ON
 	1 HOST:        1 MPI RANK  x 1 THREAD
 	NUMBER OF EQUATIONS:     18
 	NUMBER OF RHS:           1
 	NUMBER OF FLOPS:         2.109e+03

     CHECK POINT  START OF SOLVER     

     CHECK POINT  END OF SOLVER       

       ELAPSED USER TIME (SEC)      =   0.0000    
       ELAPSED SYSTEM TIME (SEC)    =   0.0000    
       ELAPSED TOTAL CPU TIME (SEC) =   0.0000    
       ELAPSED WALLCLOCK TIME (SEC) =            0

               CONVERGENCE CHECKS FOR EQUILIBRIUM ITERATION     1


 AVERAGE FORCE                       1.30       TIME AVG. FORCE       0.245    
 LARGEST SCALED RESIDUAL FORCE      6.306E-08   AT NODE          2   DOF  1
  CORRESPONDING RESIDUAL FORCE      6.306E-08
 LARGEST INCREMENT OF DISP.         2.217E-04   AT NODE          1   DOF  2
 LARGEST CORRECTION TO DISP.       -5.090E-07   AT NODE          6   DOF  3
          THE FORCE     EQUILIBRIUM EQUATIONS HAVE CONVERGED
          TIME INCREMENT MAY NOW INCREASE TO    0.986    

 ITERATION SUMMARY FOR THE INCREMENT:   1 TOTAL ITERATIONS, OF WHICH
   0 ARE SEVERE DISCONTINUITY ITERATIONS AND  1 ARE EQUILIBRIUM ITERATIONS.

 TIME INCREMENT COMPLETED  0.658    ,  FRACTION OF STEP COMPLETED  6.650E-03
 STEP TIME COMPLETED        1.97    ,  TOTAL TIME COMPLETED         1.97    


  INCREMENT    22 STARTS. ATTEMPT NUMBER  1, TIME INCREMENT  0.986    
 
	SYMMETRIC DIRECT SPARSE SOLVER RUNNING ON
 	1 HOST:        1 MPI RANK  x 1 THREAD
 	NUMBER OF EQUATIONS:     18
 	NUMBER OF RHS:           1
 	NUMBER OF FLOPS:         2.109e+03

     CHECK POINT  START OF SOLVER     

     CHECK POINT  END OF SOLVER       

       ELAPSED USER TIME (SEC)      =   0.0000    
       ELAPSED SYSTEM TIME (SEC)    =   0.0000    
       ELAPSED TOTAL CPU TIME (SEC) =   0.0000    
       ELAPSED WALLCLOCK TIME (SEC) =            0

               CONVERGENCE CHECKS FOR EQUILIBRIUM ITERATION     1


 AVERAGE FORCE                       1.38       TIME AVG. FORCE       0.297    
 LARGEST SCALED RESIDUAL FORCE     -1.301E-08   AT NODE          2   DOF  3
  CORRESPONDING RESIDUAL FORCE     -1.301E-08
 LARGEST INCREMENT OF DISP.         3.325E-04   AT NODE          1   DOF  2
 LARGEST CORRECTION TO DISP.       -1.364E-07   AT NODE          5   DOF  3
          THE FORCE     EQUILIBRIUM EQUATIONS HAVE CONVERGED
          TIME INCREMENT MAY NOW INCREASE TO     1.48    

 ITERATION SUMMARY FOR THE INCREMENT:   1 TOTAL ITERATIONS, OF WHICH
   0 ARE SEVERE DISCONTINUITY ITERATIONS AND  1 ARE EQUILIBRIUM ITERATIONS.

 TIME INCREMENT COMPLETED  0.986    ,  FRACTION OF STEP COMPLETED  9.975E-03
 STEP TIME COMPLETED        2.96    ,  TOTAL TIME COMPLETED         2.96    


  INCREMENT    23 STARTS. ATTEMPT NUMBER  1, TIME INCREMENT   1.48    
 
	SYMMETRIC DIRECT SPARSE SOLVER RUNNING ON
 	1 HOST:        1 MPI RANK  x 1 THREAD
 	NUMBER OF EQUATIONS:     18
 	NUMBER OF RHS:           1
 	NUMBER OF FLOPS:         2.109e+03

     CHECK POINT  START OF SOLVER     

     CHECK POINT  END OF SOLVER       

       ELAPSED USER TIME (SEC)      =   0.0000    
       ELAPSED SYSTEM TIME (SEC)    =   0.0000    
       ELAPSED TOTAL CPU TIME (SEC) =   0.0000    
       ELAPSED WALLCLOCK TIME (SEC) =            0

               CONVERGENCE CHECKS FOR EQUILIBRIUM ITERATION     1


 AVERAGE FORCE                       1.48       TIME AVG. FORCE       0.348    
 LARGEST SCALED RESIDUAL FORCE      4.494E-08   AT NODE          6   DOF  3
  CORRESPONDING RESIDUAL FORCE      4.494E-08
 LARGEST INCREMENT OF DISP.         4.988E-04   AT NODE          1   DOF  2
 LARGEST CORRECTION TO DISP.        6.499E-07   AT NODE          4   DOF  1
          THE FORCE     EQUILIBRIUM EQUATIONS HAVE CONVERGED
          TIME INCREMENT MAY NOW INCREASE TO     2.22    

 ITERATION SUMMARY FOR THE INCREMENT:   1 TOTAL ITERATIONS, OF WHICH
   0 ARE SEVERE DISCONTINUITY ITERATIONS AND  1 ARE EQUILIBRIUM ITERATIONS.

 TIME INCREMENT COMPLETED   1.48    ,  FRACTION OF STEP COMPLETED  1.496E-02
 STEP TIME COMPLETED        4.44    ,  TOTAL TIME COMPLETED         4.44    


  INCREMENT    24 STARTS. ATTEMPT NUMBER  1, TIME INCREMENT   2.22    
 
	SYMMETRIC DIRECT SPARSE SOLVER RUNNING ON
 	1 HOST:        1 MPI RANK  x 1 THREAD
 	NUMBER OF EQUATIONS:     18
 	NUMBER OF RHS:           1
 	NUMBER OF FLOPS:         2.109e+03

     CHECK POINT  START OF SOLVER     

     CHECK POINT  END OF SOLVER       

       ELAPSED USER TIME (SEC)      =   0.0000    
       ELAPSED SYSTEM TIME (SEC)    =   0.0000    
       ELAPSED TOTAL CPU TIME (SEC) =   0.0000    
       ELAPSED WALLCLOCK TIME (SEC) =            0

               CONVERGENCE CHECKS FOR EQUILIBRIUM ITERATION     1


 AVERAGE FORCE                       1.59       TIME AVG. FORCE       0.400    
 LARGEST SCALED RESIDUAL FORCE      3.185E-07   AT NODE          1   DOF  1
  CORRESPONDING RESIDUAL FORCE      3.185E-07
 LARGEST INCREMENT OF DISP.         7.482E-04   AT NODE          1   DOF  2
 LARGEST CORRECTION TO DISP.        2.265E-06   AT NODE          6   DOF  3
          THE FORCE     EQUILIBRIUM EQUATIONS HAVE CONVERGED
          TIME INCREMENT MAY NOW INCREASE TO     2.97    

 ITERATION SUMMARY FOR THE INCREMENT:   1 TOTAL ITERATIONS, OF WHICH
   0 ARE SEVERE DISCONTINUITY ITERATIONS AND  1 ARE EQUILIBRIUM ITERATIONS.

 TIME INCREMENT COMPLETED   2.22    ,  FRACTION OF STEP COMPLETED  2.244E-02
 STEP TIME COMPLETED        6.66    ,  TOTAL TIME COMPLETED         6.66    


  INCREMENT    25 STARTS. ATTEMPT NUMBER  1, TIME INCREMENT   2.97    
 
	SYMMETRIC DIRECT SPARSE SOLVER RUNNING ON
 	1 HOST:        1 MPI RANK  x 1 THREAD
 	NUMBER OF EQUATIONS:     18
 	NUMBER OF RHS:           1
 	NUMBER OF FLOPS:         2.109e+03

     CHECK POINT  START OF SOLVER     

     CHECK POINT  END OF SOLVER       

       ELAPSED USER TIME (SEC)      =   0.0000    
       ELAPSED SYSTEM TIME (SEC)    =   0.0000    
       ELAPSED TOTAL CPU TIME (SEC) =   0.0000    
       ELAPSED WALLCLOCK TIME (SEC) =            0

               CONVERGENCE CHECKS FOR EQUILIBRIUM ITERATION     1


 AVERAGE FORCE                       1.71       TIME AVG. FORCE       0.452    
 LARGEST SCALED RESIDUAL FORCE      1.585E-06   AT NODE          2   DOF  1
  CORRESPONDING RESIDUAL FORCE      1.585E-06
 LARGEST INCREMENT OF DISP.         1.000E-03   AT NODE          1   DOF  2
 LARGEST CORRECTION TO DISP.        5.063E-06   AT NODE          1   DOF  3
          THE FORCE     EQUILIBRIUM EQUATIONS HAVE CONVERGED

 ITERATION SUMMARY FOR THE INCREMENT:   1 TOTAL ITERATIONS, OF WHICH
   0 ARE SEVERE DISCONTINUITY ITERATIONS AND  1 ARE EQUILIBRIUM ITERATIONS.

 TIME INCREMENT COMPLETED   2.97    ,  FRACTION OF STEP COMPLETED  3.244E-02
 STEP TIME COMPLETED        9.62    ,  TOTAL TIME COMPLETED         9.62    


  INCREMENT    26 STARTS. ATTEMPT NUMBER  1, TIME INCREMENT   2.97    
 
	SYMMETRIC DIRECT SPARSE SOLVER RUNNING ON
 	1 HOST:        1 MPI RANK  x 1 THREAD
 	NUMBER OF EQUATIONS:     18
 	NUMBER OF RHS:           1
 	NUMBER OF FLOPS:         2.109e+03

     CHECK POINT  START OF SOLVER     

     CHECK POINT  END OF SOLVER       

       ELAPSED USER TIME (SEC)      =   0.0000    
       ELAPSED SYSTEM TIME (SEC)    =   0.0000    
       ELAPSED TOTAL CPU TIME (SEC) =   0.0000    
       ELAPSED WALLCLOCK TIME (SEC) =            0

               CONVERGENCE CHECKS FOR EQUILIBRIUM ITERATION     1


 AVERAGE FORCE                       1.79       TIME AVG. FORCE       0.504    
 LARGEST SCALED RESIDUAL FORCE      2.553E-06   AT NODE          4   DOF  1
  CORRESPONDING RESIDUAL FORCE      2.553E-06
 LARGEST INCREMENT OF DISP.         1.000E-03   AT NODE          1   DOF  2
 LARGEST CORRECTION TO DISP.        6.276E-06   AT NODE          2   DOF  3
          THE FORCE     EQUILIBRIUM EQUATIONS HAVE CONVERGED

 ITERATION SUMMARY FOR THE INCREMENT:   1 TOTAL ITERATIONS, OF WHICH
   0 ARE SEVERE DISCONTINUITY ITERATIONS AND  1 ARE EQUILIBRIUM ITERATIONS.

 TIME INCREMENT COMPLETED   2.97    ,  FRACTION OF STEP COMPLETED  4.244E-02
 STEP TIME COMPLETED        12.6    ,  TOTAL TIME COMPLETED         12.6    


  INCREMENT    27 STARTS. ATTEMPT NUMBER  1, TIME INCREMENT   2.97    
 
	SYMMETRIC DIRECT SPARSE SOLVER RUNNING ON
 	1 HOST:        1 MPI RANK  x 1 THREAD
 	NUMBER OF EQUATIONS:     18
 	NUMBER OF RHS:           1
 	NUMBER OF FLOPS:         2.109e+03

     CHECK POINT  START OF SOLVER     

     CHECK POINT  END OF SOLVER       

       ELAPSED USER TIME (SEC)      =   0.0000    
       ELAPSED SYSTEM TIME (SEC)    =   0.0000    
       ELAPSED TOTAL CPU TIME (SEC) =   0.0000    
       ELAPSED WALLCLOCK TIME (SEC) =            0

               CONVERGENCE CHECKS FOR EQUILIBRIUM ITERATION     1


 AVERAGE FORCE                       1.84       TIME AVG. FORCE       0.553    
 LARGEST SCALED RESIDUAL FORCE      2.909E-06   AT NODE          2   DOF  1
  CORRESPONDING RESIDUAL FORCE      2.909E-06
 LARGEST INCREMENT OF DISP.         1.000E-03   AT NODE          1   DOF  2
 LARGEST CORRECTION TO DISP.        6.527E-06   AT NODE          6   DOF  3
          THE FORCE     EQUILIBRIUM EQUATIONS HAVE CONVERGED

 ITERATION SUMMARY FOR THE INCREMENT:   1 TOTAL ITERATIONS, OF WHICH
   0 ARE SEVERE DISCONTINUITY ITERATIONS AND  1 ARE EQUILIBRIUM ITERATIONS.

 TIME INCREMENT COMPLETED   2.97    ,  FRACTION OF STEP COMPLETED  5.244E-02
 STEP TIME COMPLETED        15.6    ,  TOTAL TIME COMPLETED         15.6    


  INCREMENT    28 STARTS. ATTEMPT NUMBER  1, TIME INCREMENT   2.97    
 
	SYMMETRIC DIRECT SPARSE SOLVER RUNNING ON
 	1 HOST:        1 MPI RANK  x 1 THREAD
 	NUMBER OF EQUATIONS:     18
 	NUMBER OF RHS:           1
 	NUMBER OF FLOPS:         2.109e+03

     CHECK POINT  START OF SOLVER     

     CHECK POINT  END OF SOLVER       

       ELAPSED USER TIME (SEC)      =   0.0000    
       ELAPSED SYSTEM TIME (SEC)    =   0.0000    
       ELAPSED TOTAL CPU TIME (SEC) =   0.0000    
       ELAPSED WALLCLOCK TIME (SEC) =            0

               CONVERGENCE CHECKS FOR EQUILIBRIUM ITERATION     1


 AVERAGE FORCE                       1.88       TIME AVG. FORCE       0.601    
 LARGEST SCALED RESIDUAL FORCE      3.144E-06   AT NODE          1   DOF  1
  CORRESPONDING RESIDUAL FORCE      3.144E-06
 LARGEST INCREMENT OF DISP.         1.000E-03   AT NODE          1   DOF  2
 LARGEST CORRECTION TO DISP.        6.641E-06   AT NODE          6   DOF  3
          THE FORCE     EQUILIBRIUM EQUATIONS HAVE CONVERGED

 ITERATION SUMMARY FOR THE INCREMENT:   1 TOTAL ITERATIONS, OF WHICH
   0 ARE SEVERE DISCONTINUITY ITERATIONS AND  1 ARE EQUILIBRIUM ITERATIONS.

 TIME INCREMENT COMPLETED   2.97    ,  FRACTION OF STEP COMPLETED  6.244E-02
 STEP TIME COMPLETED        18.5    ,  TOTAL TIME COMPLETED         18.5    


  INCREMENT    29 STARTS. ATTEMPT NUMBER  1, TIME INCREMENT   2.97    
 
	SYMMETRIC DIRECT SPARSE SOLVER RUNNING ON
 	1 HOST:        1 MPI RANK  x 1 THREAD
 	NUMBER OF EQUATIONS:     18
 	NUMBER OF RHS:           1
 	NUMBER OF FLOPS:         2.109e+03

     CHECK POINT  START OF SOLVER     

     CHECK POINT  END OF SOLVER       

       ELAPSED USER TIME (SEC)      =   0.0000    
       ELAPSED SYSTEM TIME (SEC)    =   0.0000    
       ELAPSED TOTAL CPU TIME (SEC) =   0.0000    
       ELAPSED WALLCLOCK TIME (SEC) =            0

               CONVERGENCE CHECKS FOR EQUILIBRIUM ITERATION     1


 AVERAGE FORCE                       1.91       TIME AVG. FORCE       0.646    
 LARGEST SCALED RESIDUAL FORCE      3.297E-06   AT NODE          4   DOF  1
  CORRESPONDING RESIDUAL FORCE      3.297E-06
 LARGEST INCREMENT OF DISP.         1.000E-03   AT NODE          1   DOF  2
 LARGEST CORRECTION TO DISP.        6.676E-06   AT NODE          2   DOF  3
          THE FORCE     EQUILIBRIUM EQUATIONS HAVE CONVERGED

 ITERATION SUMMARY FOR THE INCREMENT:   1 TOTAL ITERATIONS, OF WHICH
   0 ARE SEVERE DISCONTINUITY ITERATIONS AND  1 ARE EQUILIBRIUM ITERATIONS.

 TIME INCREMENT COMPLETED   2.97    ,  FRACTION OF STEP COMPLETED  7.244E-02
 STEP TIME COMPLETED        21.5    ,  TOTAL TIME COMPLETED         21.5    


  INCREMENT    30 STARTS. ATTEMPT NUMBER  1, TIME INCREMENT   2.97    
 
	SYMMETRIC DIRECT SPARSE SOLVER RUNNING ON
 	1 HOST:        1 MPI RANK  x 1 THREAD
 	NUMBER OF EQUATIONS:     18
 	NUMBER OF RHS:           1
 	NUMBER OF FLOPS:         2.109e+03

     CHECK POINT  START OF SOLVER     

     CHECK POINT  END OF SOLVER       

       ELAPSED USER TIME (SEC)      =   0.0000    
       ELAPSED SYSTEM TIME (SEC)    =   0.0000    
       ELAPSED TOTAL CPU TIME (SEC) =   0.0000    
       ELAPSED WALLCLOCK TIME (SEC) =            0

               CONVERGENCE CHECKS FOR EQUILIBRIUM ITERATION     1


 AVERAGE FORCE                       1.93       TIME AVG. FORCE       0.689    
 LARGEST SCALED RESIDUAL FORCE      3.390E-06   AT NODE          3   DOF  1
  CORRESPONDING RESIDUAL FORCE      3.390E-06
 LARGEST INCREMENT OF DISP.         1.000E-03   AT NODE          1   DOF  2
 LARGEST CORRECTION TO DISP.        6.659E-06   AT NODE          1   DOF  3
          THE FORCE     EQUILIBRIUM EQUATIONS HAVE CONVERGED

 ITERATION SUMMARY FOR THE INCREMENT:   1 TOTAL ITERATIONS, OF WHICH
   0 ARE SEVERE DISCONTINUITY ITERATIONS AND  1 ARE EQUILIBRIUM ITERATIONS.

 TIME INCREMENT COMPLETED   2.97    ,  FRACTION OF STEP COMPLETED  8.244E-02
 STEP TIME COMPLETED        24.5    ,  TOTAL TIME COMPLETED         24.5    


  INCREMENT    31 STARTS. ATTEMPT NUMBER  1, TIME INCREMENT   2.97    
 
	SYMMETRIC DIRECT SPARSE SOLVER RUNNING ON
 	1 HOST:        1 MPI RANK  x 1 THREAD
 	NUMBER OF EQUATIONS:     18
 	NUMBER OF RHS:           1
 	NUMBER OF FLOPS:         2.109e+03

     CHECK POINT  START OF SOLVER     

     CHECK POINT  END OF SOLVER       

       ELAPSED USER TIME (SEC)      =   0.0000    
       ELAPSED SYSTEM TIME (SEC)    =   0.0000    
       ELAPSED TOTAL CPU TIME (SEC) =   0.0000    
       ELAPSED WALLCLOCK TIME (SEC) =            0

               CONVERGENCE CHECKS FOR EQUILIBRIUM ITERATION     1


 AVERAGE FORCE                       1.94       TIME AVG. FORCE       0.729    
 LARGEST SCALED RESIDUAL FORCE      3.440E-06   AT NODE          2   DOF  1
  CORRESPONDING RESIDUAL FORCE      3.440E-06
 LARGEST INCREMENT OF DISP.         1.000E-03   AT NODE          1   DOF  2
 LARGEST CORRECTION TO DISP.        6.606E-06   AT NODE          5   DOF  3
          THE FORCE     EQUILIBRIUM EQUATIONS HAVE CONVERGED

 ITERATION SUMMARY FOR THE INCREMENT:   1 TOTAL ITERATIONS, OF WHICH
   0 ARE SEVERE DISCONTINUITY ITERATIONS AND  1 ARE EQUILIBRIUM ITERATIONS.

 TIME INCREMENT COMPLETED   2.97    ,  FRACTION OF STEP COMPLETED  9.244E-02
 STEP TIME COMPLETED        27.4    ,  TOTAL TIME COMPLETED         27.4    


  INCREMENT    32 STARTS. ATTEMPT NUMBER  1, TIME INCREMENT   2.97    
 
	SYMMETRIC DIRECT SPARSE SOLVER RUNNING ON
 	1 HOST:        1 MPI RANK  x 1 THREAD
 	NUMBER OF EQUATIONS:     18
 	NUMBER OF RHS:           1
 	NUMBER OF FLOPS:         2.109e+03

     CHECK POINT  START OF SOLVER     

     CHECK POINT  END OF SOLVER       

       ELAPSED USER TIME (SEC)      =   0.0000    
       ELAPSED SYSTEM TIME (SEC)    =   0.0000    
       ELAPSED TOTAL CPU TIME (SEC) =   0.0000    
       ELAPSED WALLCLOCK TIME (SEC) =            0

               CONVERGENCE CHECKS FOR EQUILIBRIUM ITERATION     1


 AVERAGE FORCE                       1.94       TIME AVG. FORCE       0.767    
 LARGEST SCALED RESIDUAL FORCE      3.456E-06   AT NODE          2   DOF  1
  CORRESPONDING RESIDUAL FORCE      3.456E-06
 LARGEST INCREMENT OF DISP.         1.000E-03   AT NODE          1   DOF  2
 LARGEST CORRECTION TO DISP.        6.530E-06   AT NODE          1   DOF  3
          THE FORCE     EQUILIBRIUM EQUATIONS HAVE CONVERGED

 ITERATION SUMMARY FOR THE INCREMENT:   1 TOTAL ITERATIONS, OF WHICH
   0 ARE SEVERE DISCONTINUITY ITERATIONS AND  1 ARE EQUILIBRIUM ITERATIONS.

 TIME INCREMENT COMPLETED   2.97    ,  FRACTION OF STEP COMPLETED  0.102    
 STEP TIME COMPLETED        30.4    ,  TOTAL TIME COMPLETED         30.4    


  INCREMENT    33 STARTS. ATTEMPT NUMBER  1, TIME INCREMENT   2.97    
 
	SYMMETRIC DIRECT SPARSE SOLVER RUNNING ON
 	1 HOST:        1 MPI RANK  x 1 THREAD
 	NUMBER OF EQUATIONS:     18
 	NUMBER OF RHS:           1
 	NUMBER OF FLOPS:         2.109e+03

     CHECK POINT  START OF SOLVER     

     CHECK POINT  END OF SOLVER       

       ELAPSED USER TIME (SEC)      =   0.0000    
       ELAPSED SYSTEM TIME (SEC)    =   0.0000    
       ELAPSED TOTAL CPU TIME (SEC) =   0.0000    
       ELAPSED WALLCLOCK TIME (SEC) =            0

               CONVERGENCE CHECKS FOR EQUILIBRIUM ITERATION     1


 AVERAGE FORCE                       1.94       TIME AVG. FORCE       0.802    
 LARGEST SCALED RESIDUAL FORCE      3.448E-06   AT NODE          1   DOF  1
  CORRESPONDING RESIDUAL FORCE      3.448E-06
 LARGEST INCREMENT OF DISP.         1.000E-03   AT NODE          1   DOF  2
 LARGEST CORRECTION TO DISP.        6.438E-06   AT NODE          2   DOF  3
          THE FORCE     EQUILIBRIUM EQUATIONS HAVE CONVERGED

 ITERATION SUMMARY FOR THE INCREMENT:   1 TOTAL ITERATIONS, OF WHICH
   0 ARE SEVERE DISCONTINUITY ITERATIONS AND  1 ARE EQUILIBRIUM ITERATIONS.

 TIME INCREMENT COMPLETED   2.97    ,  FRACTION OF STEP COMPLETED  0.112    
 STEP TIME COMPLETED        33.4    ,  TOTAL TIME COMPLETED         33.4    


  INCREMENT    34 STARTS. ATTEMPT NUMBER  1, TIME INCREMENT   2.97    
 
	SYMMETRIC DIRECT SPARSE SOLVER RUNNING ON
 	1 HOST:        1 MPI RANK  x 1 THREAD
 	NUMBER OF EQUATIONS:     18
 	NUMBER OF RHS:           1
 	NUMBER OF FLOPS:         2.109e+03

     CHECK POINT  START OF SOLVER     

     CHECK POINT  END OF SOLVER       

       ELAPSED USER TIME (SEC)      =   0.0000    
       ELAPSED SYSTEM TIME (SEC)    =   0.0000    
       ELAPSED TOTAL CPU TIME (SEC) =   0.0000    
       ELAPSED WALLCLOCK TIME (SEC) =            0

               CONVERGENCE CHECKS FOR EQUILIBRIUM ITERATION     1


 AVERAGE FORCE                       1.94       TIME AVG. FORCE       0.836    
 LARGEST SCALED RESIDUAL FORCE      3.423E-06   AT NODE          3   DOF  1
  CORRESPONDING RESIDUAL FORCE      3.423E-06
 LARGEST INCREMENT OF DISP.         1.000E-03   AT NODE          1   DOF  2
 LARGEST CORRECTION TO DISP.        6.334E-06   AT NODE          6   DOF  3
          THE FORCE     EQUILIBRIUM EQUATIONS HAVE CONVERGED

 ITERATION SUMMARY FOR THE INCREMENT:   1 TOTAL ITERATIONS, OF WHICH
   0 ARE SEVERE DISCONTINUITY ITERATIONS AND  1 ARE EQUILIBRIUM ITERATIONS.

 TIME INCREMENT COMPLETED   2.97    ,  FRACTION OF STEP COMPLETED  0.122    
 STEP TIME COMPLETED        36.3    ,  TOTAL TIME COMPLETED         36.3    


  INCREMENT    35 STARTS. ATTEMPT NUMBER  1, TIME INCREMENT   2.97    
 
	SYMMETRIC DIRECT SPARSE SOLVER RUNNING ON
 	1 HOST:        1 MPI RANK  x 1 THREAD
 	NUMBER OF EQUATIONS:     18
 	NUMBER OF RHS:           1
 	NUMBER OF FLOPS:         2.109e+03

     CHECK POINT  START OF SOLVER     

     CHECK POINT  END OF SOLVER       

       ELAPSED USER TIME (SEC)      =   0.0000    
       ELAPSED SYSTEM TIME (SEC)    =   0.0000    
       ELAPSED TOTAL CPU TIME (SEC) =   0.0000    
       ELAPSED WALLCLOCK TIME (SEC) =            0

               CONVERGENCE CHECKS FOR EQUILIBRIUM ITERATION     1


 AVERAGE FORCE                       1.93       TIME AVG. FORCE       0.867    
 LARGEST SCALED RESIDUAL FORCE      3.385E-06   AT NODE          4   DOF  1
  CORRESPONDING RESIDUAL FORCE      3.385E-06
 LARGEST INCREMENT OF DISP.         1.000E-03   AT NODE          1   DOF  2
 LARGEST CORRECTION TO DISP.        6.224E-06   AT NODE          5   DOF  3
          THE FORCE     EQUILIBRIUM EQUATIONS HAVE CONVERGED

 ITERATION SUMMARY FOR THE INCREMENT:   1 TOTAL ITERATIONS, OF WHICH
   0 ARE SEVERE DISCONTINUITY ITERATIONS AND  1 ARE EQUILIBRIUM ITERATIONS.

 TIME INCREMENT COMPLETED   2.97    ,  FRACTION OF STEP COMPLETED  0.132    
 STEP TIME COMPLETED        39.3    ,  TOTAL TIME COMPLETED         39.3    


  INCREMENT    36 STARTS. ATTEMPT NUMBER  1, TIME INCREMENT   2.97    
 
	SYMMETRIC DIRECT SPARSE SOLVER RUNNING ON
 	1 HOST:        1 MPI RANK  x 1 THREAD
 	NUMBER OF EQUATIONS:     18
 	NUMBER OF RHS:           1
 	NUMBER OF FLOPS:         2.109e+03

     CHECK POINT  START OF SOLVER     

     CHECK POINT  END OF SOLVER       

       ELAPSED USER TIME (SEC)      =   0.0000    
       ELAPSED SYSTEM TIME (SEC)    =   0.0000    
       ELAPSED TOTAL CPU TIME (SEC) =   0.0000    
       ELAPSED WALLCLOCK TIME (SEC) =            0

               CONVERGENCE CHECKS FOR EQUILIBRIUM ITERATION     1


 AVERAGE FORCE                       1.93       TIME AVG. FORCE       0.897    
 LARGEST SCALED RESIDUAL FORCE      3.338E-06   AT NODE          3   DOF  1
  CORRESPONDING RESIDUAL FORCE      3.338E-06
 LARGEST INCREMENT OF DISP.         1.000E-03   AT NODE          1   DOF  2
 LARGEST CORRECTION TO DISP.        6.109E-06   AT NODE          1   DOF  3
          THE FORCE     EQUILIBRIUM EQUATIONS HAVE CONVERGED

 ITERATION SUMMARY FOR THE INCREMENT:   1 TOTAL ITERATIONS, OF WHICH
   0 ARE SEVERE DISCONTINUITY ITERATIONS AND  1 ARE EQUILIBRIUM ITERATIONS.

 TIME INCREMENT COMPLETED   2.97    ,  FRACTION OF STEP COMPLETED  0.142    
 STEP TIME COMPLETED        42.2    ,  TOTAL TIME COMPLETED         42.2    


  INCREMENT    37 STARTS. ATTEMPT NUMBER  1, TIME INCREMENT   2.97    
 
	SYMMETRIC DIRECT SPARSE SOLVER RUNNING ON
 	1 HOST:        1 MPI RANK  x 1 THREAD
 	NUMBER OF EQUATIONS:     18
 	NUMBER OF RHS:           1
 	NUMBER OF FLOPS:         2.109e+03

     CHECK POINT  START OF SOLVER     

     CHECK POINT  END OF SOLVER       

       ELAPSED USER TIME (SEC)      =   0.0000    
       ELAPSED SYSTEM TIME (SEC)    =   0.0000    
       ELAPSED TOTAL CPU TIME (SEC) =   0.0000    
       ELAPSED WALLCLOCK TIME (SEC) =            0

               CONVERGENCE CHECKS FOR EQUILIBRIUM ITERATION     1


 AVERAGE FORCE                       1.92       TIME AVG. FORCE       0.924    
 LARGEST SCALED RESIDUAL FORCE      3.285E-06   AT NODE          4   DOF  1
  CORRESPONDING RESIDUAL FORCE      3.285E-06
 LARGEST INCREMENT OF DISP.         1.000E-03   AT NODE          1   DOF  2
 LARGEST CORRECTION TO DISP.        5.992E-06   AT NODE          2   DOF  3
          THE FORCE     EQUILIBRIUM EQUATIONS HAVE CONVERGED

 ITERATION SUMMARY FOR THE INCREMENT:   1 TOTAL ITERATIONS, OF WHICH
   0 ARE SEVERE DISCONTINUITY ITERATIONS AND  1 ARE EQUILIBRIUM ITERATIONS.

 TIME INCREMENT COMPLETED   2.97    ,  FRACTION OF STEP COMPLETED  0.152    
 STEP TIME COMPLETED        45.2    ,  TOTAL TIME COMPLETED         45.2    


  INCREMENT    38 STARTS. ATTEMPT NUMBER  1, TIME INCREMENT   2.97    
 
	SYMMETRIC DIRECT SPARSE SOLVER RUNNING ON
 	1 HOST:        1 MPI RANK  x 1 THREAD
 	NUMBER OF EQUATIONS:     18
 	NUMBER OF RHS:           1
 	NUMBER OF FLOPS:         2.109e+03

     CHECK POINT  START OF SOLVER     

     CHECK POINT  END OF SOLVER       

       ELAPSED USER TIME (SEC)      =   0.0000    
       ELAPSED SYSTEM TIME (SEC)    =   0.0000    
       ELAPSED TOTAL CPU TIME (SEC) =   0.0000    
       ELAPSED WALLCLOCK TIME (SEC) =            0

               CONVERGENCE CHECKS FOR EQUILIBRIUM ITERATION     1


 AVERAGE FORCE                       1.91       TIME AVG. FORCE       0.950    
 LARGEST SCALED RESIDUAL FORCE      3.228E-06   AT NODE          2   DOF  1
  CORRESPONDING RESIDUAL FORCE      3.228E-06
 LARGEST INCREMENT OF DISP.         1.000E-03   AT NODE          1   DOF  2
 LARGEST CORRECTION TO DISP.        5.874E-06   AT NODE          6   DOF  3
          THE FORCE     EQUILIBRIUM EQUATIONS HAVE CONVERGED

 ITERATION SUMMARY FOR THE INCREMENT:   1 TOTAL ITERATIONS, OF WHICH
   0 ARE SEVERE DISCONTINUITY ITERATIONS AND  1 ARE EQUILIBRIUM ITERATIONS.

 TIME INCREMENT COMPLETED   2.97    ,  FRACTION OF STEP COMPLETED  0.162    
 STEP TIME COMPLETED        48.2    ,  TOTAL TIME COMPLETED         48.2    


  INCREMENT    39 STARTS. ATTEMPT NUMBER  1, TIME INCREMENT   2.97    
 
	SYMMETRIC DIRECT SPARSE SOLVER RUNNING ON
 	1 HOST:        1 MPI RANK  x 1 THREAD
 	NUMBER OF EQUATIONS:     18
 	NUMBER OF RHS:           1
 	NUMBER OF FLOPS:         2.109e+03

     CHECK POINT  START OF SOLVER     

     CHECK POINT  END OF SOLVER       

       ELAPSED USER TIME (SEC)      =   0.0000    
       ELAPSED SYSTEM TIME (SEC)    =   0.0000    
       ELAPSED TOTAL CPU TIME (SEC) =   0.0000    
       ELAPSED WALLCLOCK TIME (SEC) =            0

               CONVERGENCE CHECKS FOR EQUILIBRIUM ITERATION     1


 AVERAGE FORCE                       1.90       TIME AVG. FORCE       0.974    
 LARGEST SCALED RESIDUAL FORCE      3.168E-06   AT NODE          1   DOF  1
  CORRESPONDING RESIDUAL FORCE      3.168E-06
 LARGEST INCREMENT OF DISP.         1.000E-03   AT NODE          1   DOF  2
 LARGEST CORRECTION TO DISP.        5.757E-06   AT NODE          2   DOF  3
          THE FORCE     EQUILIBRIUM EQUATIONS HAVE CONVERGED

 ITERATION SUMMARY FOR THE INCREMENT:   1 TOTAL ITERATIONS, OF WHICH
   0 ARE SEVERE DISCONTINUITY ITERATIONS AND  1 ARE EQUILIBRIUM ITERATIONS.

 TIME INCREMENT COMPLETED   2.97    ,  FRACTION OF STEP COMPLETED  0.172    
 STEP TIME COMPLETED        51.1    ,  TOTAL TIME COMPLETED         51.1    


  INCREMENT    40 STARTS. ATTEMPT NUMBER  1, TIME INCREMENT   2.97    
 
	SYMMETRIC DIRECT SPARSE SOLVER RUNNING ON
 	1 HOST:        1 MPI RANK  x 1 THREAD
 	NUMBER OF EQUATIONS:     18
 	NUMBER OF RHS:           1
 	NUMBER OF FLOPS:         2.109e+03

     CHECK POINT  START OF SOLVER     

     CHECK POINT  END OF SOLVER       

       ELAPSED USER TIME (SEC)      =   0.0000    
       ELAPSED SYSTEM TIME (SEC)    =   0.0000    
       ELAPSED TOTAL CPU TIME (SEC) =   0.0000    
       ELAPSED WALLCLOCK TIME (SEC) =            0

               CONVERGENCE CHECKS FOR EQUILIBRIUM ITERATION     1


 AVERAGE FORCE                       1.89       TIME AVG. FORCE       0.997    
 LARGEST SCALED RESIDUAL FORCE      3.107E-06   AT NODE          2   DOF  1
  CORRESPONDING RESIDUAL FORCE      3.107E-06
 LARGEST INCREMENT OF DISP.         1.000E-03   AT NODE          1   DOF  2
 LARGEST CORRECTION TO DISP.        5.641E-06   AT NODE          6   DOF  3
          THE FORCE     EQUILIBRIUM EQUATIONS HAVE CONVERGED

 ITERATION SUMMARY FOR THE INCREMENT:   1 TOTAL ITERATIONS, OF WHICH
   0 ARE SEVERE DISCONTINUITY ITERATIONS AND  1 ARE EQUILIBRIUM ITERATIONS.

 TIME INCREMENT COMPLETED   2.97    ,  FRACTION OF STEP COMPLETED  0.182    
 STEP TIME COMPLETED        54.1    ,  TOTAL TIME COMPLETED         54.1    


  INCREMENT    41 STARTS. ATTEMPT NUMBER  1, TIME INCREMENT   2.97    
 
	SYMMETRIC DIRECT SPARSE SOLVER RUNNING ON
 	1 HOST:        1 MPI RANK  x 1 THREAD
 	NUMBER OF EQUATIONS:     18
 	NUMBER OF RHS:           1
 	NUMBER OF FLOPS:         2.109e+03

     CHECK POINT  START OF SOLVER     

     CHECK POINT  END OF SOLVER       

       ELAPSED USER TIME (SEC)      =   0.0000    
       ELAPSED SYSTEM TIME (SEC)    =   0.0000    
       ELAPSED TOTAL CPU TIME (SEC) =   0.0000    
       ELAPSED WALLCLOCK TIME (SEC) =            0

               CONVERGENCE CHECKS FOR EQUILIBRIUM ITERATION     1


 AVERAGE FORCE                       1.88       TIME AVG. FORCE        1.02    
 LARGEST SCALED RESIDUAL FORCE      3.045E-06   AT NODE          1   DOF  1
  CORRESPONDING RESIDUAL FORCE      3.045E-06
 LARGEST INCREMENT OF DISP.         1.000E-03   AT NODE          1   DOF  2
 LARGEST CORRECTION TO DISP.        5.527E-06   AT NODE          2   DOF  3
          THE FORCE     EQUILIBRIUM EQUATIONS HAVE CONVERGED

 ITERATION SUMMARY FOR THE INCREMENT:   1 TOTAL ITERATIONS, OF WHICH
   0 ARE SEVERE DISCONTINUITY ITERATIONS AND  1 ARE EQUILIBRIUM ITERATIONS.

 TIME INCREMENT COMPLETED   2.97    ,  FRACTION OF STEP COMPLETED  0.192    
 STEP TIME COMPLETED        57.1    ,  TOTAL TIME COMPLETED         57.1    


  INCREMENT    42 STARTS. ATTEMPT NUMBER  1, TIME INCREMENT   2.97    
 
	SYMMETRIC DIRECT SPARSE SOLVER RUNNING ON
 	1 HOST:        1 MPI RANK  x 1 THREAD
 	NUMBER OF EQUATIONS:     18
 	NUMBER OF RHS:           1
 	NUMBER OF FLOPS:         2.109e+03

     CHECK POINT  START OF SOLVER     

     CHECK POINT  END OF SOLVER       

       ELAPSED USER TIME (SEC)      =   0.0000    
       ELAPSED SYSTEM TIME (SEC)    =   0.0000    
       ELAPSED TOTAL CPU TIME (SEC) =   0.0000    
       ELAPSED WALLCLOCK TIME (SEC) =            0

               CONVERGENCE CHECKS FOR EQUILIBRIUM ITERATION     1


 AVERAGE FORCE                       1.87       TIME AVG. FORCE        1.04    
 LARGEST SCALED RESIDUAL FORCE      2.983E-06   AT NODE          3   DOF  1
  CORRESPONDING RESIDUAL FORCE      2.983E-06
 LARGEST INCREMENT OF DISP.         1.000E-03   AT NODE          1   DOF  2
 LARGEST CORRECTION TO DISP.        5.414E-06   AT NODE          6   DOF  3
          THE FORCE     EQUILIBRIUM EQUATIONS HAVE CONVERGED

 ITERATION SUMMARY FOR THE INCREMENT:   1 TOTAL ITERATIONS, OF WHICH
   0 ARE SEVERE DISCONTINUITY ITERATIONS AND  1 ARE EQUILIBRIUM ITERATIONS.

 TIME INCREMENT COMPLETED   2.97    ,  FRACTION OF STEP COMPLETED  0.202    
 STEP TIME COMPLETED        60.0    ,  TOTAL TIME COMPLETED         60.0    


  INCREMENT    43 STARTS. ATTEMPT NUMBER  1, TIME INCREMENT   2.97    
 
	SYMMETRIC DIRECT SPARSE SOLVER RUNNING ON
 	1 HOST:        1 MPI RANK  x 1 THREAD
 	NUMBER OF EQUATIONS:     18
 	NUMBER OF RHS:           1
 	NUMBER OF FLOPS:         2.109e+03

     CHECK POINT  START OF SOLVER     

     CHECK POINT  END OF SOLVER       

       ELAPSED USER TIME (SEC)      =   0.0000    
       ELAPSED SYSTEM TIME (SEC)    =   0.0000    
       ELAPSED TOTAL CPU TIME (SEC) =   0.0000    
       ELAPSED WALLCLOCK TIME (SEC) =            0

               CONVERGENCE CHECKS FOR EQUILIBRIUM ITERATION     1


 AVERAGE FORCE                       1.86       TIME AVG. FORCE        1.06    
 LARGEST SCALED RESIDUAL FORCE      2.922E-06   AT NODE          1   DOF  1
  CORRESPONDING RESIDUAL FORCE      2.922E-06
 LARGEST INCREMENT OF DISP.         1.000E-03   AT NODE          1   DOF  2
 LARGEST CORRECTION TO DISP.        5.304E-06   AT NODE          1   DOF  3
          THE FORCE     EQUILIBRIUM EQUATIONS HAVE CONVERGED

 ITERATION SUMMARY FOR THE INCREMENT:   1 TOTAL ITERATIONS, OF WHICH
   0 ARE SEVERE DISCONTINUITY ITERATIONS AND  1 ARE EQUILIBRIUM ITERATIONS.

 TIME INCREMENT COMPLETED   2.97    ,  FRACTION OF STEP COMPLETED  0.212    
 STEP TIME COMPLETED        63.0    ,  TOTAL TIME COMPLETED         63.0    


  INCREMENT    44 STARTS. ATTEMPT NUMBER  1, TIME INCREMENT   2.97    
 
	SYMMETRIC DIRECT SPARSE SOLVER RUNNING ON
 	1 HOST:        1 MPI RANK  x 1 THREAD
 	NUMBER OF EQUATIONS:     18
 	NUMBER OF RHS:           1
 	NUMBER OF FLOPS:         2.109e+03

     CHECK POINT  START OF SOLVER     

     CHECK POINT  END OF SOLVER       

       ELAPSED USER TIME (SEC)      =   0.0000    
       ELAPSED SYSTEM TIME (SEC)    =   0.0000    
       ELAPSED TOTAL CPU TIME (SEC) =   0.0000    
       ELAPSED WALLCLOCK TIME (SEC) =            0

               CONVERGENCE CHECKS FOR EQUILIBRIUM ITERATION     1


 AVERAGE FORCE                       1.85       TIME AVG. FORCE        1.08    
 LARGEST SCALED RESIDUAL FORCE      2.861E-06   AT NODE          3   DOF  1
  CORRESPONDING RESIDUAL FORCE      2.861E-06
 LARGEST INCREMENT OF DISP.         1.000E-03   AT NODE          1   DOF  2
 LARGEST CORRECTION TO DISP.        5.196E-06   AT NODE          5   DOF  3
          THE FORCE     EQUILIBRIUM EQUATIONS HAVE CONVERGED

 ITERATION SUMMARY FOR THE INCREMENT:   1 TOTAL ITERATIONS, OF WHICH
   0 ARE SEVERE DISCONTINUITY ITERATIONS AND  1 ARE EQUILIBRIUM ITERATIONS.

 TIME INCREMENT COMPLETED   2.97    ,  FRACTION OF STEP COMPLETED  0.222    
 STEP TIME COMPLETED        66.0    ,  TOTAL TIME COMPLETED         66.0    


  INCREMENT    45 STARTS. ATTEMPT NUMBER  1, TIME INCREMENT   2.97    
 
	SYMMETRIC DIRECT SPARSE SOLVER RUNNING ON
 	1 HOST:        1 MPI RANK  x 1 THREAD
 	NUMBER OF EQUATIONS:     18
 	NUMBER OF RHS:           1
 	NUMBER OF FLOPS:         2.109e+03

     CHECK POINT  START OF SOLVER     

     CHECK POINT  END OF SOLVER       

       ELAPSED USER TIME (SEC)      =   0.0000    
       ELAPSED SYSTEM TIME (SEC)    =   0.0000    
       ELAPSED TOTAL CPU TIME (SEC) =   0.0000    
       ELAPSED WALLCLOCK TIME (SEC) =            0

               CONVERGENCE CHECKS FOR EQUILIBRIUM ITERATION     1


 AVERAGE FORCE                       1.84       TIME AVG. FORCE        1.09    
 LARGEST SCALED RESIDUAL FORCE      2.802E-06   AT NODE          3   DOF  1
  CORRESPONDING RESIDUAL FORCE      2.802E-06
 LARGEST INCREMENT OF DISP.         1.000E-03   AT NODE          1   DOF  2
 LARGEST CORRECTION TO DISP.        5.091E-06   AT NODE          6   DOF  3
          THE FORCE     EQUILIBRIUM EQUATIONS HAVE CONVERGED

 ITERATION SUMMARY FOR THE INCREMENT:   1 TOTAL ITERATIONS, OF WHICH
   0 ARE SEVERE DISCONTINUITY ITERATIONS AND  1 ARE EQUILIBRIUM ITERATIONS.

 TIME INCREMENT COMPLETED   2.97    ,  FRACTION OF STEP COMPLETED  0.232    
 STEP TIME COMPLETED        68.9    ,  TOTAL TIME COMPLETED         68.9    


  INCREMENT    46 STARTS. ATTEMPT NUMBER  1, TIME INCREMENT   2.97    
 
	SYMMETRIC DIRECT SPARSE SOLVER RUNNING ON
 	1 HOST:        1 MPI RANK  x 1 THREAD
 	NUMBER OF EQUATIONS:     18
 	NUMBER OF RHS:           1
 	NUMBER OF FLOPS:         2.109e+03

     CHECK POINT  START OF SOLVER     

     CHECK POINT  END OF SOLVER       

       ELAPSED USER TIME (SEC)      =   0.0000    
       ELAPSED SYSTEM TIME (SEC)    =   0.0000    
       ELAPSED TOTAL CPU TIME (SEC) =   0.0000    
       ELAPSED WALLCLOCK TIME (SEC) =            0

               CONVERGENCE CHECKS FOR EQUILIBRIUM ITERATION     1


 AVERAGE FORCE                       1.82       TIME AVG. FORCE        1.11    
 LARGEST SCALED RESIDUAL FORCE      2.743E-06   AT NODE          2   DOF  1
  CORRESPONDING RESIDUAL FORCE      2.743E-06
 LARGEST INCREMENT OF DISP.         1.000E-03   AT NODE          1   DOF  2
 LARGEST CORRECTION TO DISP.        4.988E-06   AT NODE          6   DOF  3
          THE FORCE     EQUILIBRIUM EQUATIONS HAVE CONVERGED

 ITERATION SUMMARY FOR THE INCREMENT:   1 TOTAL ITERATIONS, OF WHICH
   0 ARE SEVERE DISCONTINUITY ITERATIONS AND  1 ARE EQUILIBRIUM ITERATIONS.

 TIME INCREMENT COMPLETED   2.97    ,  FRACTION OF STEP COMPLETED  0.242    
 STEP TIME COMPLETED        71.9    ,  TOTAL TIME COMPLETED         71.9    


  INCREMENT    47 STARTS. ATTEMPT NUMBER  1, TIME INCREMENT   2.97    
 
	SYMMETRIC DIRECT SPARSE SOLVER RUNNING ON
 	1 HOST:        1 MPI RANK  x 1 THREAD
 	NUMBER OF EQUATIONS:     18
 	NUMBER OF RHS:           1
 	NUMBER OF FLOPS:         2.109e+03

     CHECK POINT  START OF SOLVER     

     CHECK POINT  END OF SOLVER       

       ELAPSED USER TIME (SEC)      =   0.0000    
       ELAPSED SYSTEM TIME (SEC)    =   0.0000    
       ELAPSED TOTAL CPU TIME (SEC) =   0.0000    
       ELAPSED WALLCLOCK TIME (SEC) =            0

               CONVERGENCE CHECKS FOR EQUILIBRIUM ITERATION     1


 AVERAGE FORCE                       1.81       TIME AVG. FORCE        1.12    
 LARGEST SCALED RESIDUAL FORCE      2.686E-06   AT NODE          1   DOF  1
  CORRESPONDING RESIDUAL FORCE      2.686E-06
 LARGEST INCREMENT OF DISP.         1.000E-03   AT NODE          1   DOF  2
 LARGEST CORRECTION TO DISP.        4.888E-06   AT NODE          2   DOF  3
          THE FORCE     EQUILIBRIUM EQUATIONS HAVE CONVERGED

 ITERATION SUMMARY FOR THE INCREMENT:   1 TOTAL ITERATIONS, OF WHICH
   0 ARE SEVERE DISCONTINUITY ITERATIONS AND  1 ARE EQUILIBRIUM ITERATIONS.

 TIME INCREMENT COMPLETED   2.97    ,  FRACTION OF STEP COMPLETED  0.252    
 STEP TIME COMPLETED        74.9    ,  TOTAL TIME COMPLETED         74.9    


  INCREMENT    48 STARTS. ATTEMPT NUMBER  1, TIME INCREMENT   2.97    
 
	SYMMETRIC DIRECT SPARSE SOLVER RUNNING ON
 	1 HOST:        1 MPI RANK  x 1 THREAD
 	NUMBER OF EQUATIONS:     18
 	NUMBER OF RHS:           1
 	NUMBER OF FLOPS:         2.109e+03

     CHECK POINT  START OF SOLVER     

     CHECK POINT  END OF SOLVER       

       ELAPSED USER TIME (SEC)      =   0.0000    
       ELAPSED SYSTEM TIME (SEC)    =   0.0000    
       ELAPSED TOTAL CPU TIME (SEC) =   0.0000    
       ELAPSED WALLCLOCK TIME (SEC) =            0

               CONVERGENCE CHECKS FOR EQUILIBRIUM ITERATION     1


 AVERAGE FORCE                       1.80       TIME AVG. FORCE        1.14    
 LARGEST SCALED RESIDUAL FORCE      2.631E-06   AT NODE          4   DOF  1
  CORRESPONDING RESIDUAL FORCE      2.631E-06
 LARGEST INCREMENT OF DISP.         1.000E-03   AT NODE          1   DOF  2
 LARGEST CORRECTION TO DISP.        4.790E-06   AT NODE          6   DOF  3
          THE FORCE     EQUILIBRIUM EQUATIONS HAVE CONVERGED

 ITERATION SUMMARY FOR THE INCREMENT:   1 TOTAL ITERATIONS, OF WHICH
   0 ARE SEVERE DISCONTINUITY ITERATIONS AND  1 ARE EQUILIBRIUM ITERATIONS.

 TIME INCREMENT COMPLETED   2.97    ,  FRACTION OF STEP COMPLETED  0.262    
 STEP TIME COMPLETED        77.8    ,  TOTAL TIME COMPLETED         77.8    


  INCREMENT    49 STARTS. ATTEMPT NUMBER  1, TIME INCREMENT   2.97    
 
	SYMMETRIC DIRECT SPARSE SOLVER RUNNING ON
 	1 HOST:        1 MPI RANK  x 1 THREAD
 	NUMBER OF EQUATIONS:     18
 	NUMBER OF RHS:           1
 	NUMBER OF FLOPS:         2.109e+03

     CHECK POINT  START OF SOLVER     

     CHECK POINT  END OF SOLVER       

       ELAPSED USER TIME (SEC)      =   0.0000    
       ELAPSED SYSTEM TIME (SEC)    =   0.0000    
       ELAPSED TOTAL CPU TIME (SEC) =   0.0000    
       ELAPSED WALLCLOCK TIME (SEC) =            0

               CONVERGENCE CHECKS FOR EQUILIBRIUM ITERATION     1


 AVERAGE FORCE                       1.79       TIME AVG. FORCE        1.15    
 LARGEST SCALED RESIDUAL FORCE      2.576E-06   AT NODE          4   DOF  1
  CORRESPONDING RESIDUAL FORCE      2.576E-06
 LARGEST INCREMENT OF DISP.         1.000E-03   AT NODE          1   DOF  2
 LARGEST CORRECTION TO DISP.        4.695E-06   AT NODE          5   DOF  3
          THE FORCE     EQUILIBRIUM EQUATIONS HAVE CONVERGED

 ITERATION SUMMARY FOR THE INCREMENT:   1 TOTAL ITERATIONS, OF WHICH
   0 ARE SEVERE DISCONTINUITY ITERATIONS AND  1 ARE EQUILIBRIUM ITERATIONS.

 TIME INCREMENT COMPLETED   2.97    ,  FRACTION OF STEP COMPLETED  0.272    
 STEP TIME COMPLETED        80.8    ,  TOTAL TIME COMPLETED         80.8    


  INCREMENT    50 STARTS. ATTEMPT NUMBER  1, TIME INCREMENT   2.97    
 
	SYMMETRIC DIRECT SPARSE SOLVER RUNNING ON
 	1 HOST:        1 MPI RANK  x 1 THREAD
 	NUMBER OF EQUATIONS:     18
 	NUMBER OF RHS:           1
 	NUMBER OF FLOPS:         2.109e+03

     CHECK POINT  START OF SOLVER     

     CHECK POINT  END OF SOLVER       

       ELAPSED USER TIME (SEC)      =   0.0000    
       ELAPSED SYSTEM TIME (SEC)    =   0.0000    
       ELAPSED TOTAL CPU TIME (SEC) =   0.0000    
       ELAPSED WALLCLOCK TIME (SEC) =            0

               CONVERGENCE CHECKS FOR EQUILIBRIUM ITERATION     1


 AVERAGE FORCE                       1.78       TIME AVG. FORCE        1.16    
 LARGEST SCALED RESIDUAL FORCE      2.523E-06   AT NODE          2   DOF  1
  CORRESPONDING RESIDUAL FORCE      2.523E-06
 LARGEST INCREMENT OF DISP.         1.000E-03   AT NODE          1   DOF  2
 LARGEST CORRECTION TO DISP.        4.603E-06   AT NODE          1   DOF  3
          THE FORCE     EQUILIBRIUM EQUATIONS HAVE CONVERGED

 ITERATION SUMMARY FOR THE INCREMENT:   1 TOTAL ITERATIONS, OF WHICH
   0 ARE SEVERE DISCONTINUITY ITERATIONS AND  1 ARE EQUILIBRIUM ITERATIONS.

 TIME INCREMENT COMPLETED   2.97    ,  FRACTION OF STEP COMPLETED  0.282    
 STEP TIME COMPLETED        83.8    ,  TOTAL TIME COMPLETED         83.8    


  INCREMENT    51 STARTS. ATTEMPT NUMBER  1, TIME INCREMENT   2.97    
 
	SYMMETRIC DIRECT SPARSE SOLVER RUNNING ON
 	1 HOST:        1 MPI RANK  x 1 THREAD
 	NUMBER OF EQUATIONS:     18
 	NUMBER OF RHS:           1
 	NUMBER OF FLOPS:         2.109e+03

     CHECK POINT  START OF SOLVER     

     CHECK POINT  END OF SOLVER       

       ELAPSED USER TIME (SEC)      =   0.0000    
       ELAPSED SYSTEM TIME (SEC)    =   0.0000    
       ELAPSED TOTAL CPU TIME (SEC) =   0.0000    
       ELAPSED WALLCLOCK TIME (SEC) =            0

               CONVERGENCE CHECKS FOR EQUILIBRIUM ITERATION     1


 AVERAGE FORCE                       1.77       TIME AVG. FORCE        1.18    
 LARGEST SCALED RESIDUAL FORCE      2.472E-06   AT NODE          4   DOF  1
  CORRESPONDING RESIDUAL FORCE      2.472E-06
 LARGEST INCREMENT OF DISP.         1.000E-03   AT NODE          1   DOF  2
 LARGEST CORRECTION TO DISP.        4.512E-06   AT NODE          5   DOF  3
          THE FORCE     EQUILIBRIUM EQUATIONS HAVE CONVERGED

 ITERATION SUMMARY FOR THE INCREMENT:   1 TOTAL ITERATIONS, OF WHICH
   0 ARE SEVERE DISCONTINUITY ITERATIONS AND  1 ARE EQUILIBRIUM ITERATIONS.

 TIME INCREMENT COMPLETED   2.97    ,  FRACTION OF STEP COMPLETED  0.292    
 STEP TIME COMPLETED        86.7    ,  TOTAL TIME COMPLETED         86.7    


  INCREMENT    52 STARTS. ATTEMPT NUMBER  1, TIME INCREMENT   2.97    
 
	SYMMETRIC DIRECT SPARSE SOLVER RUNNING ON
 	1 HOST:        1 MPI RANK  x 1 THREAD
 	NUMBER OF EQUATIONS:     18
 	NUMBER OF RHS:           1
 	NUMBER OF FLOPS:         2.109e+03

     CHECK POINT  START OF SOLVER     

     CHECK POINT  END OF SOLVER       

       ELAPSED USER TIME (SEC)      =   0.0000    
       ELAPSED SYSTEM TIME (SEC)    =   0.0000    
       ELAPSED TOTAL CPU TIME (SEC) =   0.0000    
       ELAPSED WALLCLOCK TIME (SEC) =            0

               CONVERGENCE CHECKS FOR EQUILIBRIUM ITERATION     1


 AVERAGE FORCE                       1.76       TIME AVG. FORCE        1.19    
 LARGEST SCALED RESIDUAL FORCE      2.421E-06   AT NODE          1   DOF  1
  CORRESPONDING RESIDUAL FORCE      2.421E-06
 LARGEST INCREMENT OF DISP.         1.000E-03   AT NODE          1   DOF  2
 LARGEST CORRECTION TO DISP.        4.424E-06   AT NODE          1   DOF  3
          THE FORCE     EQUILIBRIUM EQUATIONS HAVE CONVERGED

 ITERATION SUMMARY FOR THE INCREMENT:   1 TOTAL ITERATIONS, OF WHICH
   0 ARE SEVERE DISCONTINUITY ITERATIONS AND  1 ARE EQUILIBRIUM ITERATIONS.

 TIME INCREMENT COMPLETED   2.97    ,  FRACTION OF STEP COMPLETED  0.302    
 STEP TIME COMPLETED        89.7    ,  TOTAL TIME COMPLETED         89.7    


  INCREMENT    53 STARTS. ATTEMPT NUMBER  1, TIME INCREMENT   2.97    
 
	SYMMETRIC DIRECT SPARSE SOLVER RUNNING ON
 	1 HOST:        1 MPI RANK  x 1 THREAD
 	NUMBER OF EQUATIONS:     18
 	NUMBER OF RHS:           1
 	NUMBER OF FLOPS:         2.109e+03

     CHECK POINT  START OF SOLVER     

     CHECK POINT  END OF SOLVER       

       ELAPSED USER TIME (SEC)      =   0.0000    
       ELAPSED SYSTEM TIME (SEC)    =   0.0000    
       ELAPSED TOTAL CPU TIME (SEC) =   0.0000    
       ELAPSED WALLCLOCK TIME (SEC) =            0
 

 ***WARNING: THE SYSTEM MATRIX HAS 1 NEGATIVE EIGENVALUES.

     NEGATIVE EIGENVALUES MEAN THAT THE SYSTEM MATRIX IS NOT 
     POSITIVE DEFINITE:
     FOR EXAMPLE, A BIFURCATION (BUCKLING) LOAD MAY HAVE BEEN EXCEEDED.

               CONVERGENCE CHECKS FOR EQUILIBRIUM ITERATION     1


 AVERAGE FORCE                       1.75       TIME AVG. FORCE        1.20    
 LARGEST SCALED RESIDUAL FORCE      2.372E-06   AT NODE          2   DOF  1
  CORRESPONDING RESIDUAL FORCE      2.372E-06
 LARGEST INCREMENT OF DISP.         1.000E-03   AT NODE          1   DOF  2
 LARGEST CORRECTION TO DISP.        4.339E-06   AT NODE          2   DOF  3
          THE FORCE     EQUILIBRIUM EQUATIONS HAVE CONVERGED

 ITERATION SUMMARY FOR THE INCREMENT:   1 TOTAL ITERATIONS, OF WHICH
   0 ARE SEVERE DISCONTINUITY ITERATIONS AND  1 ARE EQUILIBRIUM ITERATIONS.

 TIME INCREMENT COMPLETED   2.97    ,  FRACTION OF STEP COMPLETED  0.312    
 STEP TIME COMPLETED        92.7    ,  TOTAL TIME COMPLETED         92.7    


  INCREMENT    54 STARTS. ATTEMPT NUMBER  1, TIME INCREMENT   2.97    
 
	SYMMETRIC DIRECT SPARSE SOLVER RUNNING ON
 	1 HOST:        1 MPI RANK  x 1 THREAD
 	NUMBER OF EQUATIONS:     18
 	NUMBER OF RHS:           1
 	NUMBER OF FLOPS:         2.109e+03

     CHECK POINT  START OF SOLVER     

     CHECK POINT  END OF SOLVER       

       ELAPSED USER TIME (SEC)      =   0.0000    
       ELAPSED SYSTEM TIME (SEC)    =   0.0000    
       ELAPSED TOTAL CPU TIME (SEC) =   0.0000    
       ELAPSED WALLCLOCK TIME (SEC) =            0
 

 ***WARNING: THE SYSTEM MATRIX HAS 1 NEGATIVE EIGENVALUES.
             EXPLANATIONS ARE SUGGESTED AFTER THE FIRST OCCURRENCE OF THIS MESSAGE.

               CONVERGENCE CHECKS FOR EQUILIBRIUM ITERATION     1


 AVERAGE FORCE                       1.74       TIME AVG. FORCE        1.21    
 LARGEST SCALED RESIDUAL FORCE      2.325E-06   AT NODE          2   DOF  1
  CORRESPONDING RESIDUAL FORCE      2.325E-06
 LARGEST INCREMENT OF DISP.         1.000E-03   AT NODE          1   DOF  2
 LARGEST CORRECTION TO DISP.        4.255E-06   AT NODE          6   DOF  3
          THE FORCE     EQUILIBRIUM EQUATIONS HAVE CONVERGED

 ITERATION SUMMARY FOR THE INCREMENT:   1 TOTAL ITERATIONS, OF WHICH
   0 ARE SEVERE DISCONTINUITY ITERATIONS AND  1 ARE EQUILIBRIUM ITERATIONS.

 TIME INCREMENT COMPLETED   2.97    ,  FRACTION OF STEP COMPLETED  0.322    
 STEP TIME COMPLETED        95.6    ,  TOTAL TIME COMPLETED         95.6    


  INCREMENT    55 STARTS. ATTEMPT NUMBER  1, TIME INCREMENT   2.97    
 
	SYMMETRIC DIRECT SPARSE SOLVER RUNNING ON
 	1 HOST:        1 MPI RANK  x 1 THREAD
 	NUMBER OF EQUATIONS:     18
 	NUMBER OF RHS:           1
 	NUMBER OF FLOPS:         2.109e+03

[...]
       ELAPSED SYSTEM TIME (SEC)    =   0.0000    
       ELAPSED TOTAL CPU TIME (SEC) =   0.0000    
       ELAPSED WALLCLOCK TIME (SEC) =            0
 

 ***WARNING: THE SYSTEM MATRIX HAS 1 NEGATIVE EIGENVALUES.
             EXPLANATIONS ARE SUGGESTED AFTER THE FIRST OCCURRENCE OF THIS MESSAGE.

               CONVERGENCE CHECKS FOR EQUILIBRIUM ITERATION     1


 AVERAGE FORCE                       1.27       TIME AVG. FORCE        1.34    
 LARGEST SCALED RESIDUAL FORCE      9.163E-07   AT NODE          1   DOF  1
  CORRESPONDING RESIDUAL FORCE      9.163E-07
 LARGEST INCREMENT OF DISP.         1.000E-03   AT NODE          1   DOF  2
 LARGEST CORRECTION TO DISP.        1.722E-06   AT NODE          1   DOF  3
          THE FORCE     EQUILIBRIUM EQUATIONS HAVE CONVERGED

 ITERATION SUMMARY FOR THE INCREMENT:   1 TOTAL ITERATIONS, OF WHICH
   0 ARE SEVERE DISCONTINUITY ITERATIONS AND  1 ARE EQUILIBRIUM ITERATIONS.

 TIME INCREMENT COMPLETED   2.97    ,  FRACTION OF STEP COMPLETED  0.882    
 STEP TIME COMPLETED        262.    ,  TOTAL TIME COMPLETED         262.    


  INCREMENT   111 STARTS. ATTEMPT NUMBER  1, TIME INCREMENT   2.97    
 
	SYMMETRIC DIRECT SPARSE SOLVER RUNNING ON
 	1 HOST:        1 MPI RANK  x 1 THREAD
 	NUMBER OF EQUATIONS:     18
 	NUMBER OF RHS:           1
 	NUMBER OF FLOPS:         2.109e+03

     CHECK POINT  START OF SOLVER     

     CHECK POINT  END OF SOLVER       

       ELAPSED USER TIME (SEC)      =   0.0000    
       ELAPSED SYSTEM TIME (SEC)    =   0.0000    
       ELAPSED TOTAL CPU TIME (SEC) =   0.0000    
       ELAPSED WALLCLOCK TIME (SEC) =            0
 

 ***WARNING: THE SYSTEM MATRIX HAS 1 NEGATIVE EIGENVALUES.
             EXPLANATIONS ARE SUGGESTED AFTER THE FIRST OCCURRENCE OF THIS MESSAGE.

               CONVERGENCE CHECKS FOR EQUILIBRIUM ITERATION     1


 AVERAGE FORCE                       1.26       TIME AVG. FORCE        1.34    
 LARGEST SCALED RESIDUAL FORCE      9.038E-07   AT NODE          4   DOF  1
  CORRESPONDING RESIDUAL FORCE      9.038E-07
 LARGEST INCREMENT OF DISP.         1.000E-03   AT NODE          1   DOF  2
 LARGEST CORRECTION TO DISP.        1.698E-06   AT NODE          6   DOF  3
          THE FORCE     EQUILIBRIUM EQUATIONS HAVE CONVERGED

 ITERATION SUMMARY FOR THE INCREMENT:   1 TOTAL ITERATIONS, OF WHICH
   0 ARE SEVERE DISCONTINUITY ITERATIONS AND  1 ARE EQUILIBRIUM ITERATIONS.

 TIME INCREMENT COMPLETED   2.97    ,  FRACTION OF STEP COMPLETED  0.892    
 STEP TIME COMPLETED        265.    ,  TOTAL TIME COMPLETED         265.    


  INCREMENT   112 STARTS. ATTEMPT NUMBER  1, TIME INCREMENT   2.97    
 
	SYMMETRIC DIRECT SPARSE SOLVER RUNNING ON
 	1 HOST:        1 MPI RANK  x 1 THREAD
 	NUMBER OF EQUATIONS:     18
 	NUMBER OF RHS:           1
 	NUMBER OF FLOPS:         2.109e+03

     CHECK POINT  START OF SOLVER     

     CHECK POINT  END OF SOLVER       

       ELAPSED USER TIME (SEC)      =   0.0000    
       ELAPSED SYSTEM TIME (SEC)    =   0.0000    
       ELAPSED TOTAL CPU TIME (SEC) =   0.0000    
       ELAPSED WALLCLOCK TIME (SEC) =            0
 

 ***WARNING: THE SYSTEM MATRIX HAS 1 NEGATIVE EIGENVALUES.
             EXPLANATIONS ARE SUGGESTED AFTER THE FIRST OCCURRENCE OF THIS MESSAGE.

               CONVERGENCE CHECKS FOR EQUILIBRIUM ITERATION     1


 AVERAGE FORCE                       1.26       TIME AVG. FORCE        1.34    
 LARGEST SCALED RESIDUAL FORCE      8.915E-07   AT NODE          1   DOF  1
  CORRESPONDING RESIDUAL FORCE      8.915E-07
 LARGEST INCREMENT OF DISP.         1.000E-03   AT NODE          1   DOF  2
 LARGEST CORRECTION TO DISP.        1.676E-06   AT NODE          2   DOF  3
          THE FORCE     EQUILIBRIUM EQUATIONS HAVE CONVERGED

 ITERATION SUMMARY FOR THE INCREMENT:   1 TOTAL ITERATIONS, OF WHICH
   0 ARE SEVERE DISCONTINUITY ITERATIONS AND  1 ARE EQUILIBRIUM ITERATIONS.

 TIME INCREMENT COMPLETED   2.97    ,  FRACTION OF STEP COMPLETED  0.902    
 STEP TIME COMPLETED        268.    ,  TOTAL TIME COMPLETED         268.    


  INCREMENT   113 STARTS. ATTEMPT NUMBER  1, TIME INCREMENT   2.97    
 
	SYMMETRIC DIRECT SPARSE SOLVER RUNNING ON
 	1 HOST:        1 MPI RANK  x 1 THREAD
 	NUMBER OF EQUATIONS:     18
 	NUMBER OF RHS:           1
 	NUMBER OF FLOPS:         2.109e+03

     CHECK POINT  START OF SOLVER     

     CHECK POINT  END OF SOLVER       

       ELAPSED USER TIME (SEC)      =   0.0000    
       ELAPSED SYSTEM TIME (SEC)    =   0.0000    
       ELAPSED TOTAL CPU TIME (SEC) =   0.0000    
       ELAPSED WALLCLOCK TIME (SEC) =            0
 

 ***WARNING: THE SYSTEM MATRIX HAS 1 NEGATIVE EIGENVALUES.
             EXPLANATIONS ARE SUGGESTED AFTER THE FIRST OCCURRENCE OF THIS MESSAGE.

               CONVERGENCE CHECKS FOR EQUILIBRIUM ITERATION     1


 AVERAGE FORCE                       1.25       TIME AVG. FORCE        1.34    
 LARGEST SCALED RESIDUAL FORCE      8.795E-07   AT NODE          4   DOF  1
  CORRESPONDING RESIDUAL FORCE      8.795E-07
 LARGEST INCREMENT OF DISP.         1.000E-03   AT NODE          1   DOF  2
 LARGEST CORRECTION TO DISP.        1.653E-06   AT NODE          6   DOF  3
          THE FORCE     EQUILIBRIUM EQUATIONS HAVE CONVERGED

 ITERATION SUMMARY FOR THE INCREMENT:   1 TOTAL ITERATIONS, OF WHICH
   0 ARE SEVERE DISCONTINUITY ITERATIONS AND  1 ARE EQUILIBRIUM ITERATIONS.

 TIME INCREMENT COMPLETED   2.97    ,  FRACTION OF STEP COMPLETED  0.912    
 STEP TIME COMPLETED        271.    ,  TOTAL TIME COMPLETED         271.    


  INCREMENT   114 STARTS. ATTEMPT NUMBER  1, TIME INCREMENT   2.97    
 
	SYMMETRIC DIRECT SPARSE SOLVER RUNNING ON
 	1 HOST:        1 MPI RANK  x 1 THREAD
 	NUMBER OF EQUATIONS:     18
 	NUMBER OF RHS:           1
 	NUMBER OF FLOPS:         2.109e+03

     CHECK POINT  START OF SOLVER     

     CHECK POINT  END OF SOLVER       

       ELAPSED USER TIME (SEC)      =   0.0000    
       ELAPSED SYSTEM TIME (SEC)    =   0.0000    
       ELAPSED TOTAL CPU TIME (SEC) =   0.0000    
       ELAPSED WALLCLOCK TIME (SEC) =            0
 

 ***WARNING: THE SYSTEM MATRIX HAS 1 NEGATIVE EIGENVALUES.
             EXPLANATIONS ARE SUGGESTED AFTER THE FIRST OCCURRENCE OF THIS MESSAGE.

               CONVERGENCE CHECKS FOR EQUILIBRIUM ITERATION     1


 AVERAGE FORCE                       1.25       TIME AVG. FORCE        1.34    
 LARGEST SCALED RESIDUAL FORCE      8.677E-07   AT NODE          4   DOF  1
  CORRESPONDING RESIDUAL FORCE      8.677E-07
 LARGEST INCREMENT OF DISP.         1.000E-03   AT NODE          1   DOF  2
 LARGEST CORRECTION TO DISP.        1.631E-06   AT NODE          6   DOF  3
          THE FORCE     EQUILIBRIUM EQUATIONS HAVE CONVERGED

 ITERATION SUMMARY FOR THE INCREMENT:   1 TOTAL ITERATIONS, OF WHICH
   0 ARE SEVERE DISCONTINUITY ITERATIONS AND  1 ARE EQUILIBRIUM ITERATIONS.

 TIME INCREMENT COMPLETED   2.97    ,  FRACTION OF STEP COMPLETED  0.922    
 STEP TIME COMPLETED        274.    ,  TOTAL TIME COMPLETED         274.    


  INCREMENT   115 STARTS. ATTEMPT NUMBER  1, TIME INCREMENT   2.97    
 
	SYMMETRIC DIRECT SPARSE SOLVER RUNNING ON
 	1 HOST:        1 MPI RANK  x 1 THREAD
 	NUMBER OF EQUATIONS:     18
 	NUMBER OF RHS:           1
 	NUMBER OF FLOPS:         2.109e+03

     CHECK POINT  START OF SOLVER     

     CHECK POINT  END OF SOLVER       

       ELAPSED USER TIME (SEC)      =   0.0000    
       ELAPSED SYSTEM TIME (SEC)    =   0.0000    
       ELAPSED TOTAL CPU TIME (SEC) =   0.0000    
       ELAPSED WALLCLOCK TIME (SEC) =            0
 

 ***WARNING: THE SYSTEM MATRIX HAS 1 NEGATIVE EIGENVALUES.
             EXPLANATIONS ARE SUGGESTED AFTER THE FIRST OCCURRENCE OF THIS MESSAGE.

               CONVERGENCE CHECKS FOR EQUILIBRIUM ITERATION     1


 AVERAGE FORCE                       1.24       TIME AVG. FORCE        1.34    
 LARGEST SCALED RESIDUAL FORCE      8.561E-07   AT NODE          2   DOF  1
  CORRESPONDING RESIDUAL FORCE      8.561E-07
 LARGEST INCREMENT OF DISP.         1.000E-03   AT NODE          1   DOF  2
 LARGEST CORRECTION TO DISP.        1.610E-06   AT NODE          1   DOF  3
          THE FORCE     EQUILIBRIUM EQUATIONS HAVE CONVERGED

 ITERATION SUMMARY FOR THE INCREMENT:   1 TOTAL ITERATIONS, OF WHICH
   0 ARE SEVERE DISCONTINUITY ITERATIONS AND  1 ARE EQUILIBRIUM ITERATIONS.

 TIME INCREMENT COMPLETED   2.97    ,  FRACTION OF STEP COMPLETED  0.932    
 STEP TIME COMPLETED        277.    ,  TOTAL TIME COMPLETED         277.    


  INCREMENT   116 STARTS. ATTEMPT NUMBER  1, TIME INCREMENT   2.97    
 
	SYMMETRIC DIRECT SPARSE SOLVER RUNNING ON
 	1 HOST:        1 MPI RANK  x 1 THREAD
 	NUMBER OF EQUATIONS:     18
 	NUMBER OF RHS:           1
 	NUMBER OF FLOPS:         2.109e+03

     CHECK POINT  START OF SOLVER     

     CHECK POINT  END OF SOLVER       

       ELAPSED USER TIME (SEC)      =   0.0000    
       ELAPSED SYSTEM TIME (SEC)    =   0.0000    
       ELAPSED TOTAL CPU TIME (SEC) =   0.0000    
       ELAPSED WALLCLOCK TIME (SEC) =            0
 

 ***WARNING: THE SYSTEM MATRIX HAS 1 NEGATIVE EIGENVALUES.
             EXPLANATIONS ARE SUGGESTED AFTER THE FIRST OCCURRENCE OF THIS MESSAGE.

               CONVERGENCE CHECKS FOR EQUILIBRIUM ITERATION     1


 AVERAGE FORCE                       1.23       TIME AVG. FORCE        1.34    
 LARGEST SCALED RESIDUAL FORCE      8.447E-07   AT NODE          3   DOF  1
  CORRESPONDING RESIDUAL FORCE      8.447E-07
 LARGEST INCREMENT OF DISP.         1.000E-03   AT NODE          1   DOF  2
 LARGEST CORRECTION TO DISP.        1.589E-06   AT NODE          6   DOF  3
          THE FORCE     EQUILIBRIUM EQUATIONS HAVE CONVERGED

 ITERATION SUMMARY FOR THE INCREMENT:   1 TOTAL ITERATIONS, OF WHICH
   0 ARE SEVERE DISCONTINUITY ITERATIONS AND  1 ARE EQUILIBRIUM ITERATIONS.

 TIME INCREMENT COMPLETED   2.97    ,  FRACTION OF STEP COMPLETED  0.942    
 STEP TIME COMPLETED        280.    ,  TOTAL TIME COMPLETED         280.    


  INCREMENT   117 STARTS. ATTEMPT NUMBER  1, TIME INCREMENT   2.97    
 
	SYMMETRIC DIRECT SPARSE SOLVER RUNNING ON
 	1 HOST:        1 MPI RANK  x 1 THREAD
 	NUMBER OF EQUATIONS:     18
 	NUMBER OF RHS:           1
 	NUMBER OF FLOPS:         2.109e+03

     CHECK POINT  START OF SOLVER     

     CHECK POINT  END OF SOLVER       

       ELAPSED USER TIME (SEC)      =   0.0000    
       ELAPSED SYSTEM TIME (SEC)    =   0.0000    
       ELAPSED TOTAL CPU TIME (SEC) =   0.0000    
       ELAPSED WALLCLOCK TIME (SEC) =            0
 

 ***WARNING: THE SYSTEM MATRIX HAS 1 NEGATIVE EIGENVALUES.
             EXPLANATIONS ARE SUGGESTED AFTER THE FIRST OCCURRENCE OF THIS MESSAGE.

               CONVERGENCE CHECKS FOR EQUILIBRIUM ITERATION     1


 AVERAGE FORCE                       1.23       TIME AVG. FORCE        1.34    
 LARGEST SCALED RESIDUAL FORCE      8.336E-07   AT NODE          3   DOF  1
  CORRESPONDING RESIDUAL FORCE      8.336E-07
 LARGEST INCREMENT OF DISP.         1.000E-03   AT NODE          1   DOF  2
 LARGEST CORRECTION TO DISP.        1.568E-06   AT NODE          2   DOF  3
          THE FORCE     EQUILIBRIUM EQUATIONS HAVE CONVERGED

 ITERATION SUMMARY FOR THE INCREMENT:   1 TOTAL ITERATIONS, OF WHICH
   0 ARE SEVERE DISCONTINUITY ITERATIONS AND  1 ARE EQUILIBRIUM ITERATIONS.

 TIME INCREMENT COMPLETED   2.97    ,  FRACTION OF STEP COMPLETED  0.952    
 STEP TIME COMPLETED        282.    ,  TOTAL TIME COMPLETED         282.    


  INCREMENT   118 STARTS. ATTEMPT NUMBER  1, TIME INCREMENT   2.97    
 
	SYMMETRIC DIRECT SPARSE SOLVER RUNNING ON
 	1 HOST:        1 MPI RANK  x 1 THREAD
 	NUMBER OF EQUATIONS:     18
 	NUMBER OF RHS:           1
 	NUMBER OF FLOPS:         2.109e+03

     CHECK POINT  START OF SOLVER     

     CHECK POINT  END OF SOLVER       

       ELAPSED USER TIME (SEC)      =   0.0000    
       ELAPSED SYSTEM TIME (SEC)    =   0.0000    
       ELAPSED TOTAL CPU TIME (SEC) =   0.0000    
       ELAPSED WALLCLOCK TIME (SEC) =            0
 

 ***WARNING: THE SYSTEM MATRIX HAS 1 NEGATIVE EIGENVALUES.
             EXPLANATIONS ARE SUGGESTED AFTER THE FIRST OCCURRENCE OF THIS MESSAGE.

               CONVERGENCE CHECKS FOR EQUILIBRIUM ITERATION     1


 AVERAGE FORCE                       1.22       TIME AVG. FORCE        1.34    
 LARGEST SCALED RESIDUAL FORCE      8.226E-07   AT NODE          4   DOF  1
  CORRESPONDING RESIDUAL FORCE      8.226E-07
 LARGEST INCREMENT OF DISP.         1.000E-03   AT NODE          1   DOF  2
 LARGEST CORRECTION TO DISP.        1.547E-06   AT NODE          6   DOF  3
          THE FORCE     EQUILIBRIUM EQUATIONS HAVE CONVERGED

 ITERATION SUMMARY FOR THE INCREMENT:   1 TOTAL ITERATIONS, OF WHICH
   0 ARE SEVERE DISCONTINUITY ITERATIONS AND  1 ARE EQUILIBRIUM ITERATIONS.

 TIME INCREMENT COMPLETED   2.97    ,  FRACTION OF STEP COMPLETED  0.962    
 STEP TIME COMPLETED        285.    ,  TOTAL TIME COMPLETED         285.    


  INCREMENT   119 STARTS. ATTEMPT NUMBER  1, TIME INCREMENT   2.97    
 
	SYMMETRIC DIRECT SPARSE SOLVER RUNNING ON
 	1 HOST:        1 MPI RANK  x 1 THREAD
 	NUMBER OF EQUATIONS:     18
 	NUMBER OF RHS:           1
 	NUMBER OF FLOPS:         2.109e+03

     CHECK POINT  START OF SOLVER     

     CHECK POINT  END OF SOLVER       

       ELAPSED USER TIME (SEC)      =   0.0000    
       ELAPSED SYSTEM TIME (SEC)    =   0.0000    
       ELAPSED TOTAL CPU TIME (SEC) =   0.0000    
       ELAPSED WALLCLOCK TIME (SEC) =            0
 

 ***WARNING: THE SYSTEM MATRIX HAS 1 NEGATIVE EIGENVALUES.
             EXPLANATIONS ARE SUGGESTED AFTER THE FIRST OCCURRENCE OF THIS MESSAGE.

               CONVERGENCE CHECKS FOR EQUILIBRIUM ITERATION     1


 AVERAGE FORCE                       1.22       TIME AVG. FORCE        1.34    
 LARGEST SCALED RESIDUAL FORCE      8.119E-07   AT NODE          3   DOF  1
  CORRESPONDING RESIDUAL FORCE      8.119E-07
 LARGEST INCREMENT OF DISP.         1.000E-03   AT NODE          1   DOF  2
 LARGEST CORRECTION TO DISP.        1.527E-06   AT NODE          5   DOF  3
          THE FORCE     EQUILIBRIUM EQUATIONS HAVE CONVERGED

 ITERATION SUMMARY FOR THE INCREMENT:   1 TOTAL ITERATIONS, OF WHICH
   0 ARE SEVERE DISCONTINUITY ITERATIONS AND  1 ARE EQUILIBRIUM ITERATIONS.

 TIME INCREMENT COMPLETED   2.97    ,  FRACTION OF STEP COMPLETED  0.972    
 STEP TIME COMPLETED        288.    ,  TOTAL TIME COMPLETED         288.    


  INCREMENT   120 STARTS. ATTEMPT NUMBER  1, TIME INCREMENT   2.97    
 
	SYMMETRIC DIRECT SPARSE SOLVER RUNNING ON
 	1 HOST:        1 MPI RANK  x 1 THREAD
 	NUMBER OF EQUATIONS:     18
 	NUMBER OF RHS:           1
 	NUMBER OF FLOPS:         2.109e+03

     CHECK POINT  START OF SOLVER     

     CHECK POINT  END OF SOLVER       

       ELAPSED USER TIME (SEC)      =   0.0000    
       ELAPSED SYSTEM TIME (SEC)    =   0.0000    
       ELAPSED TOTAL CPU TIME (SEC) =   0.0000    
       ELAPSED WALLCLOCK TIME (SEC) =            0
 

 ***WARNING: THE SYSTEM MATRIX HAS 1 NEGATIVE EIGENVALUES.
             EXPLANATIONS ARE SUGGESTED AFTER THE FIRST OCCURRENCE OF THIS MESSAGE.

               CONVERGENCE CHECKS FOR EQUILIBRIUM ITERATION     1


 AVERAGE FORCE                       1.21       TIME AVG. FORCE        1.34    
 LARGEST SCALED RESIDUAL FORCE      8.013E-07   AT NODE          2   DOF  1
  CORRESPONDING RESIDUAL FORCE      8.013E-07
 LARGEST INCREMENT OF DISP.         1.000E-03   AT NODE          1   DOF  2
 LARGEST CORRECTION TO DISP.        1.508E-06   AT NODE          2   DOF  3
          THE FORCE     EQUILIBRIUM EQUATIONS HAVE CONVERGED

 ITERATION SUMMARY FOR THE INCREMENT:   1 TOTAL ITERATIONS, OF WHICH
   0 ARE SEVERE DISCONTINUITY ITERATIONS AND  1 ARE EQUILIBRIUM ITERATIONS.

 TIME INCREMENT COMPLETED   2.97    ,  FRACTION OF STEP COMPLETED  0.982    
 STEP TIME COMPLETED        291.    ,  TOTAL TIME COMPLETED         291.    


  INCREMENT   121 STARTS. ATTEMPT NUMBER  1, TIME INCREMENT   2.97    
 
	SYMMETRIC DIRECT SPARSE SOLVER RUNNING ON
 	1 HOST:        1 MPI RANK  x 1 THREAD
 	NUMBER OF EQUATIONS:     18
 	NUMBER OF RHS:           1
 	NUMBER OF FLOPS:         2.109e+03

     CHECK POINT  START OF SOLVER     

     CHECK POINT  END OF SOLVER       

       ELAPSED USER TIME (SEC)      =   0.0000    
       ELAPSED SYSTEM TIME (SEC)    =   0.0000    
       ELAPSED TOTAL CPU TIME (SEC) =   0.0000    
       ELAPSED WALLCLOCK TIME (SEC) =            0
 

 ***WARNING: THE SYSTEM MATRIX HAS 1 NEGATIVE EIGENVALUES.
             EXPLANATIONS ARE SUGGESTED AFTER THE FIRST OCCURRENCE OF THIS MESSAGE.

               CONVERGENCE CHECKS FOR EQUILIBRIUM ITERATION     1


 AVERAGE FORCE                       1.21       TIME AVG. FORCE        1.33    
 LARGEST SCALED RESIDUAL FORCE      7.909E-07   AT NODE          3   DOF  1
  CORRESPONDING RESIDUAL FORCE      7.909E-07
 LARGEST INCREMENT OF DISP.         1.000E-03   AT NODE          1   DOF  2
 LARGEST CORRECTION TO DISP.        1.488E-06   AT NODE          6   DOF  3
          THE FORCE     EQUILIBRIUM EQUATIONS HAVE CONVERGED

 ITERATION SUMMARY FOR THE INCREMENT:   1 TOTAL ITERATIONS, OF WHICH
   0 ARE SEVERE DISCONTINUITY ITERATIONS AND  1 ARE EQUILIBRIUM ITERATIONS.

 TIME INCREMENT COMPLETED   2.97    ,  FRACTION OF STEP COMPLETED  0.992    
 STEP TIME COMPLETED        294.    ,  TOTAL TIME COMPLETED         294.    


  INCREMENT   122 STARTS. ATTEMPT NUMBER  1, TIME INCREMENT   2.24    
 
	SYMMETRIC DIRECT SPARSE SOLVER RUNNING ON
 	1 HOST:        1 MPI RANK  x 1 THREAD
 	NUMBER OF EQUATIONS:     18
 	NUMBER OF RHS:           1
 	NUMBER OF FLOPS:         2.109e+03

     CHECK POINT  START OF SOLVER     

     CHECK POINT  END OF SOLVER       

       ELAPSED USER TIME (SEC)      =   0.0000    
       ELAPSED SYSTEM TIME (SEC)    =   0.0000    
       ELAPSED TOTAL CPU TIME (SEC) =   0.0000    
       ELAPSED WALLCLOCK TIME (SEC) =            0
 

 ***WARNING: THE SYSTEM MATRIX HAS 1 NEGATIVE EIGENVALUES.
             EXPLANATIONS ARE SUGGESTED AFTER THE FIRST OCCURRENCE OF THIS MESSAGE.

               CONVERGENCE CHECKS FOR EQUILIBRIUM ITERATION     1


 AVERAGE FORCE                       1.20       TIME AVG. FORCE        1.33    
 LARGEST SCALED RESIDUAL FORCE      4.487E-07   AT NODE          1   DOF  1
  CORRESPONDING RESIDUAL FORCE      4.487E-07
 LARGEST INCREMENT OF DISP.         7.556E-04   AT NODE          1   DOF  2
 LARGEST CORRECTION TO DISP.        9.754E-07   AT NODE          2   DOF  3
          THE FORCE     EQUILIBRIUM EQUATIONS HAVE CONVERGED

 ITERATION SUMMARY FOR THE INCREMENT:   1 TOTAL ITERATIONS, OF WHICH
   0 ARE SEVERE DISCONTINUITY ITERATIONS AND  1 ARE EQUILIBRIUM ITERATIONS.

 TIME INCREMENT COMPLETED   2.24    ,  FRACTION OF STEP COMPLETED   1.00    
 STEP TIME COMPLETED        297.    ,  TOTAL TIME COMPLETED         297.    


          THE ANALYSIS HAS BEEN COMPLETED



     ANALYSIS SUMMARY:
     TOTAL OF        122  INCREMENTS
                       0  CUTBACKS IN AUTOMATIC INCREMENTATION
                     123  ITERATIONS INCLUDING CONTACT ITERATIONS IF PRESENT
                     123  PASSES THROUGH THE EQUATION SOLVER OF WHICH 
                     123  INVOLVE MATRIX DECOMPOSITION, INCLUDING
                       0  DECOMPOSITION(S) OF THE MASS MATRIX
                       1  REORDERING OF EQUATIONS TO MINIMIZE WAVEFRONT
                       0  ADDITIONAL RESIDUAL EVALUATIONS FOR LINE SEARCHES
                       0  ADDITIONAL OPERATOR EVALUATIONS FOR LINE SEARCHES
                       4  WARNING MESSAGES DURING USER INPUT PROCESSING
                      70  WARNING MESSAGES DURING ANALYSIS
                       0  ANALYSIS WARNINGS ARE NUMERICAL PROBLEM MESSAGES
                      70  ANALYSIS WARNINGS ARE NEGATIVE EIGENVALUE MESSAGES
                       0  ERROR MESSAGES



     JOB TIME SUMMARY
       USER TIME (SEC)      =     0.40    
       SYSTEM TIME (SEC)    =     0.50    
       TOTAL CPU TIME (SEC) =     0.90    
       WALLCLOCK TIME (SEC) =            6
       MEMORY PEAK (GB)     =            0
