1

   Abaqus 2023                                  Date 23-Jul-2024   Time 16:58:47
   For use by ETH ZUERICH under license from Dassault Systemes or its subsidiary.

                                                                                 
                                                                                 
 STEP    1     INCREMENT     1     STEP TIME    0.00    


                        S T E P       1     S T A T I C   A N A L Y S I S


                                                                                          

     AUTOMATIC TIME CONTROL WITH -
          A SUGGESTED INITIAL TIME INCREMENT OF                3.011E-04
          AND A TOTAL TIME PERIOD OF                            301.    
          THE MINIMUM TIME INCREMENT ALLOWED IS                3.011E-04
          THE MAXIMUM TIME INCREMENT ALLOWED IS                 3.01    

     LINEAR EQUATION SOLVER TYPE         DIRECT SPARSE

 CONVERGENCE TOLERANCE PARAMETERS FOR FORCE    
     CRITERION FOR RESIDUAL FORCE     FOR A NONLINEAR PROBLEM          5.000E-03
     CRITERION FOR DISP.    CORRECTION IN A NONLINEAR PROBLEM          1.000E-02
     INITIAL VALUE OF TIME AVERAGE FORCE                               1.000E-02
     AVERAGE FORCE     IS TIME AVERAGE FORCE    
     ALTERNATE CRIT. FOR RESIDUAL FORCE     FOR A NONLINEAR PROBLEM    2.000E-02
     CRITERION FOR ZERO FORCE     RELATIVE TO TIME AVRG. FORCE         1.000E-05
     CRITERION FOR RESIDUAL FORCE     WHEN THERE IS ZERO FLUX          1.000E-05
     CRITERION FOR DISP.    CORRECTION WHEN THERE IS ZERO FLUX         1.000E-03
     CRITERION FOR RESIDUAL FORCE     FOR A LINEAR INCREMENT           1.000E-08
     FIELD CONVERSION RATIO                                             1.00    
     CRITERION FOR ZERO FORCE     REL. TO TIME AVRG. MAX. FORCE        1.000E-05
     CRITERION FOR ZERO DISP.    RELATIVE TO CHARACTERISTIC LENGTH     1.000E-08

     VOLUMETRIC STRAIN COMPATIBILITY TOLERANCE FOR HYBRID SOLIDS       1.000E-05
     AXIAL STRAIN COMPATIBILITY TOLERANCE FOR HYBRID BEAMS             1.000E-05
     TRANS. SHEAR STRAIN COMPATIBILITY TOLERANCE FOR HYBRID BEAMS      1.000E-05
     SOFT CONTACT CONSTRAINT COMPATIBILITY TOLERANCE FOR P>P0          5.000E-03
     SOFT CONTACT CONSTRAINT COMPATIBILITY TOLERANCE FOR P=0.0         0.100    
     CONTACT FORCE ERROR TOLERANCE FOR CONVERT SDI=YES                 1.00    
     DISPLACEMENT COMPATIBILITY TOLERANCE FOR DCOUP ELEMENTS           1.000E-05
     ROTATION COMPATIBILITY TOLERANCE FOR DCOUP ELEMENTS               1.000E-05

 EQUILIBRIUM WILL BE CHECKED FOR SEVERE DISCONTINUITY ITERATIONS

 TIME INCREMENTATION CONTROL PARAMETERS:
     FIRST EQUILIBRIUM ITERATION FOR CONSECUTIVE DIVERGENCE CHECK              4
     EQUILIBRIUM ITERATION AT WHICH LOG. CONVERGENCE RATE CHECK BEGINS         8
     EQUILIBRIUM ITERATION AFTER WHICH ALTERNATE RESIDUAL IS USED              9
     MAXIMUM EQUILIBRIUM ITERATIONS ALLOWED                                   16
     EQUILIBRIUM ITERATION COUNT FOR CUT-BACK IN NEXT INCREMENT               10
     MAXIMUM EQUILIB. ITERS IN TWO INCREMENTS FOR TIME INCREMENT INCREASE      4
     MAXIMUM ITERATIONS FOR SEVERE DISCONTINUITIES                            50
     MAXIMUM ATTEMPTS ALLOWED IN AN INCREMENT                                  5
     MAXIMUM DISCON. ITERS IN TWO INCREMENTS FOR TIME INCREMENT INCREASE      50
     MAXIMUM CONTACT AUGMENTATIONS FOR *SURFACE BEHAVIOR,AUGMENTED LAGRANGE   50
     CUT-BACK FACTOR AFTER DIVERGENCE                                 0.2500    
     CUT-BACK FACTOR FOR TOO SLOW CONVERGENCE                         0.5000    
     CUT-BACK FACTOR AFTER TOO MANY EQUILIBRIUM ITERATIONS            0.7500    
     CUT-BACK FACTOR AFTER TOO MANY SEVERE DISCONTINUITY ITERATIONS   0.2500    
     CUT-BACK FACTOR AFTER PROBLEMS IN ELEMENT ASSEMBLY               0.2500    
     INCREASE FACTOR AFTER TWO INCREMENTS THAT CONVERGE QUICKLY        1.500    
     MAX. TIME INCREMENT INCREASE FACTOR ALLOWED                       1.500    
     MAX. TIME INCREMENT INCREASE FACTOR ALLOWED (DYNAMICS)            1.250    
     MAX. TIME INCREMENT INCREASE FACTOR ALLOWED (DIFFUSION)           2.000    
     MINIMUM TIME INCREMENT RATIO FOR EXTRAPOLATION TO OCCUR          0.1000    
     MAX. RATIO OF TIME INCREMENT TO STABILITY LIMIT                   1.000    
     FRACTION OF STABILITY LIMIT FOR NEW TIME INCREMENT               0.9500    
     TIME INCREMENT INCREASE FACTOR BEFORE A TIME POINT                1.000    
     GLOBAL STABILIZATION CONTROL IS NOT USED

          PRINT OF INCREMENT NUMBER, TIME, ETC., EVERY    1  INCREMENTS

     THE MAXIMUM NUMBER OF INCREMENTS IN THIS STEP IS                    1000

          LARGE DISPLACEMENT THEORY WILL BE USED

     LINEAR EXTRAPOLATION WILL BE USED

     CHARACTERISTIC ELEMENT LENGTH     0.100    

     DETAILS REGARDING ACTUAL SOLUTION WAVEFRONT REQUESTED

     DETAILED OUTPUT OF DIAGNOSTICS TO DATABASE REQUESTED

     PRINT OF INCREMENT NUMBER, TIME, ETC., TO THE MESSAGE FILE EVERY     1  INCREMENTS

     COLLECTING MODEL CONSTRAINT INFORMATION FOR OVERCONSTRAINT CHECKS

     COLLECTING STEP CONSTRAINT INFORMATION FOR OVERCONSTRAINT CHECKS


  INCREMENT     1 STARTS. ATTEMPT NUMBER  1, TIME INCREMENT  3.011E-04
 
	SYMMETRIC DIRECT SPARSE SOLVER RUNNING ON
 	1 HOST:        1 MPI RANK  x 1 THREAD
 	NUMBER OF EQUATIONS:     18
 	NUMBER OF RHS:           1
 	NUMBER OF FLOPS:         2.109e+03

     CHECK POINT  START OF SOLVER     

     CHECK POINT  END OF SOLVER       

       ELAPSED USER TIME (SEC)      =   0.0000    
       ELAPSED SYSTEM TIME (SEC)    =   0.0000    
       ELAPSED TOTAL CPU TIME (SEC) =   0.0000    
       ELAPSED WALLCLOCK TIME (SEC) =            0

               CONVERGENCE CHECKS FOR EQUILIBRIUM ITERATION     1


 AVERAGE FORCE                      6.268E-06   TIME AVG. FORCE       6.268E-06
 LARGEST SCALED RESIDUAL FORCE      7.051E-13   AT NODE          6   DOF  3
  CORRESPONDING RESIDUAL FORCE      7.051E-13
 LARGEST INCREMENT OF DISP.         1.000E-08   AT NODE          1   DOF  2
 LARGEST CORRECTION TO DISP.        1.000E-08   AT NODE          1   DOF  2
          DISP.    CORRECTION TOO LARGE COMPARED TO DISP.    INCREMENT
 
	SYMMETRIC DIRECT SPARSE SOLVER RUNNING ON
 	1 HOST:        1 MPI RANK  x 1 THREAD
 	NUMBER OF EQUATIONS:     18
 	NUMBER OF RHS:           1
 	NUMBER OF FLOPS:         2.109e+03

     CHECK POINT  START OF SOLVER     

     CHECK POINT  END OF SOLVER       

       ELAPSED USER TIME (SEC)      =   0.0000    
       ELAPSED SYSTEM TIME (SEC)    =   0.0000    
       ELAPSED TOTAL CPU TIME (SEC) =   0.0000    
       ELAPSED WALLCLOCK TIME (SEC) =            0

               CONVERGENCE CHECKS FOR EQUILIBRIUM ITERATION     2


 AVERAGE FORCE                      6.268E-06   TIME AVG. FORCE       6.268E-06
 LARGEST SCALED RESIDUAL FORCE      3.784E-21   AT NODE          4   DOF  1
  CORRESPONDING RESIDUAL FORCE      3.784E-21
 LARGEST INCREMENT OF DISP.         1.000E-08   AT NODE          1   DOF  2
 LARGEST CORRECTION TO DISP.        1.950E-16   AT NODE          6   DOF  3
          THE FORCE     EQUILIBRIUM EQUATIONS HAVE CONVERGED

 ITERATION SUMMARY FOR THE INCREMENT:   2 TOTAL ITERATIONS, OF WHICH
   0 ARE SEVERE DISCONTINUITY ITERATIONS AND  2 ARE EQUILIBRIUM ITERATIONS.

 TIME INCREMENT COMPLETED  3.011E-04,  FRACTION OF STEP COMPLETED  1.000E-06
 STEP TIME COMPLETED       3.011E-04,  TOTAL TIME COMPLETED        3.011E-04


  INCREMENT     2 STARTS. ATTEMPT NUMBER  1, TIME INCREMENT  3.011E-04
 
	SYMMETRIC DIRECT SPARSE SOLVER RUNNING ON
 	1 HOST:        1 MPI RANK  x 1 THREAD
 	NUMBER OF EQUATIONS:     18
 	NUMBER OF RHS:           1
 	NUMBER OF FLOPS:         2.109e+03

     CHECK POINT  START OF SOLVER     

     CHECK POINT  END OF SOLVER       

       ELAPSED USER TIME (SEC)      =   0.0000    
       ELAPSED SYSTEM TIME (SEC)    =   0.0000    
       ELAPSED TOTAL CPU TIME (SEC) =   0.0000    
       ELAPSED WALLCLOCK TIME (SEC) =            0

               CONVERGENCE CHECKS FOR EQUILIBRIUM ITERATION     1


 AVERAGE FORCE                      3.761E-05   TIME AVG. FORCE       2.194E-05
 LARGEST SCALED RESIDUAL FORCE     -2.560E-21   AT NODE          6   DOF  3
  CORRESPONDING RESIDUAL FORCE     -2.560E-21
 LARGEST INCREMENT OF DISP.         1.000E-08   AT NODE          1   DOF  2
 LARGEST CORRECTION TO DISP.        3.900E-16   AT NODE          4   DOF  1
          THE FORCE     EQUILIBRIUM RESPONSE WAS LINEAR IN THIS INCREMENT
          TIME INCREMENT MAY NOW INCREASE TO    4.516E-04

 ITERATION SUMMARY FOR THE INCREMENT:   1 TOTAL ITERATIONS, OF WHICH
   0 ARE SEVERE DISCONTINUITY ITERATIONS AND  1 ARE EQUILIBRIUM ITERATIONS.

 TIME INCREMENT COMPLETED  3.011E-04,  FRACTION OF STEP COMPLETED  2.000E-06
 STEP TIME COMPLETED       6.022E-04,  TOTAL TIME COMPLETED        6.022E-04


  INCREMENT     3 STARTS. ATTEMPT NUMBER  1, TIME INCREMENT  4.516E-04
 
	SYMMETRIC DIRECT SPARSE SOLVER RUNNING ON
 	1 HOST:        1 MPI RANK  x 1 THREAD
 	NUMBER OF EQUATIONS:     18
 	NUMBER OF RHS:           1
 	NUMBER OF FLOPS:         2.109e+03

     CHECK POINT  START OF SOLVER     

     CHECK POINT  END OF SOLVER       

       ELAPSED USER TIME (SEC)      =   0.0000    
       ELAPSED SYSTEM TIME (SEC)    =   0.0000    
       ELAPSED TOTAL CPU TIME (SEC) =   0.0000    
       ELAPSED WALLCLOCK TIME (SEC) =            0

               CONVERGENCE CHECKS FOR EQUILIBRIUM ITERATION     1


 AVERAGE FORCE                      6.581E-05   TIME AVG. FORCE       3.656E-05
 LARGEST SCALED RESIDUAL FORCE      8.038E-21   AT NODE          1   DOF  1
  CORRESPONDING RESIDUAL FORCE      8.038E-21
 LARGEST INCREMENT OF DISP.         1.500E-08   AT NODE          1   DOF  2
 LARGEST CORRECTION TO DISP.        7.312E-16   AT NODE          5   DOF  3
          THE FORCE     EQUILIBRIUM RESPONSE WAS LINEAR IN THIS INCREMENT
          TIME INCREMENT MAY NOW INCREASE TO    6.775E-04

 ITERATION SUMMARY FOR THE INCREMENT:   1 TOTAL ITERATIONS, OF WHICH
   0 ARE SEVERE DISCONTINUITY ITERATIONS AND  1 ARE EQUILIBRIUM ITERATIONS.

 TIME INCREMENT COMPLETED  4.516E-04,  FRACTION OF STEP COMPLETED  3.500E-06
 STEP TIME COMPLETED       1.054E-03,  TOTAL TIME COMPLETED        1.054E-03


  INCREMENT     4 STARTS. ATTEMPT NUMBER  1, TIME INCREMENT  6.775E-04
 
	SYMMETRIC DIRECT SPARSE SOLVER RUNNING ON
 	1 HOST:        1 MPI RANK  x 1 THREAD
 	NUMBER OF EQUATIONS:     18
 	NUMBER OF RHS:           1
 	NUMBER OF FLOPS:         2.109e+03

     CHECK POINT  START OF SOLVER     

     CHECK POINT  END OF SOLVER       

       ELAPSED USER TIME (SEC)      =   0.0000    
       ELAPSED SYSTEM TIME (SEC)    =   0.0000    
       ELAPSED TOTAL CPU TIME (SEC) =   0.0000    
       ELAPSED WALLCLOCK TIME (SEC) =            0

               CONVERGENCE CHECKS FOR EQUILIBRIUM ITERATION     1


 AVERAGE FORCE                      1.081E-04   TIME AVG. FORCE       5.445E-05
 LARGEST SCALED RESIDUAL FORCE      1.925E-20   AT NODE          3   DOF  1
  CORRESPONDING RESIDUAL FORCE      1.925E-20
 LARGEST INCREMENT OF DISP.         2.250E-08   AT NODE          1   DOF  2
 LARGEST CORRECTION TO DISP.        1.645E-15   AT NODE          2   DOF  1
          THE FORCE     EQUILIBRIUM RESPONSE WAS LINEAR IN THIS INCREMENT
          TIME INCREMENT MAY NOW INCREASE TO    1.016E-03

 ITERATION SUMMARY FOR THE INCREMENT:   1 TOTAL ITERATIONS, OF WHICH
   0 ARE SEVERE DISCONTINUITY ITERATIONS AND  1 ARE EQUILIBRIUM ITERATIONS.

 TIME INCREMENT COMPLETED  6.775E-04,  FRACTION OF STEP COMPLETED  5.750E-06
 STEP TIME COMPLETED       1.731E-03,  TOTAL TIME COMPLETED        1.731E-03


  INCREMENT     5 STARTS. ATTEMPT NUMBER  1, TIME INCREMENT  1.016E-03
 
	SYMMETRIC DIRECT SPARSE SOLVER RUNNING ON
 	1 HOST:        1 MPI RANK  x 1 THREAD
 	NUMBER OF EQUATIONS:     18
 	NUMBER OF RHS:           1
 	NUMBER OF FLOPS:         2.109e+03

     CHECK POINT  START OF SOLVER     

     CHECK POINT  END OF SOLVER       

       ELAPSED USER TIME (SEC)      =   0.0000    
       ELAPSED SYSTEM TIME (SEC)    =   0.0000    
       ELAPSED TOTAL CPU TIME (SEC) =   0.0000    
       ELAPSED WALLCLOCK TIME (SEC) =            0

               CONVERGENCE CHECKS FOR EQUILIBRIUM ITERATION     1


 AVERAGE FORCE                      1.716E-04   TIME AVG. FORCE       7.788E-05
 LARGEST SCALED RESIDUAL FORCE     -4.303E-20   AT NODE          3   DOF  1
  CORRESPONDING RESIDUAL FORCE     -4.303E-20
 LARGEST INCREMENT OF DISP.         3.375E-08   AT NODE          1   DOF  2
 LARGEST CORRECTION TO DISP.        3.702E-15   AT NODE          3   DOF  1
          THE FORCE     EQUILIBRIUM RESPONSE WAS LINEAR IN THIS INCREMENT
          TIME INCREMENT MAY NOW INCREASE TO    1.524E-03

 ITERATION SUMMARY FOR THE INCREMENT:   1 TOTAL ITERATIONS, OF WHICH
   0 ARE SEVERE DISCONTINUITY ITERATIONS AND  1 ARE EQUILIBRIUM ITERATIONS.

 TIME INCREMENT COMPLETED  1.016E-03,  FRACTION OF STEP COMPLETED  9.125E-06
 STEP TIME COMPLETED       2.747E-03,  TOTAL TIME COMPLETED        2.747E-03


  INCREMENT     6 STARTS. ATTEMPT NUMBER  1, TIME INCREMENT  1.524E-03
 
	SYMMETRIC DIRECT SPARSE SOLVER RUNNING ON
 	1 HOST:        1 MPI RANK  x 1 THREAD
 	NUMBER OF EQUATIONS:     18
 	NUMBER OF RHS:           1
 	NUMBER OF FLOPS:         2.109e+03

     CHECK POINT  START OF SOLVER     

     CHECK POINT  END OF SOLVER       

       ELAPSED USER TIME (SEC)      =   0.0000    
       ELAPSED SYSTEM TIME (SEC)    =   0.0000    
       ELAPSED TOTAL CPU TIME (SEC) =   0.0000    
       ELAPSED WALLCLOCK TIME (SEC) =            0

               CONVERGENCE CHECKS FOR EQUILIBRIUM ITERATION     1


 AVERAGE FORCE                      2.668E-04   TIME AVG. FORCE       1.094E-04
 LARGEST SCALED RESIDUAL FORCE     -4.080E-20   AT NODE          3   DOF  1
  CORRESPONDING RESIDUAL FORCE     -4.080E-20
 LARGEST INCREMENT OF DISP.         5.063E-08   AT NODE          1   DOF  2
 LARGEST CORRECTION TO DISP.        8.329E-15   AT NODE          2   DOF  1
          THE FORCE     EQUILIBRIUM RESPONSE WAS LINEAR IN THIS INCREMENT
          TIME INCREMENT MAY NOW INCREASE TO    2.286E-03

 ITERATION SUMMARY FOR THE INCREMENT:   1 TOTAL ITERATIONS, OF WHICH
   0 ARE SEVERE DISCONTINUITY ITERATIONS AND  1 ARE EQUILIBRIUM ITERATIONS.

 TIME INCREMENT COMPLETED  1.524E-03,  FRACTION OF STEP COMPLETED  1.419E-05
 STEP TIME COMPLETED       4.272E-03,  TOTAL TIME COMPLETED        4.272E-03


  INCREMENT     7 STARTS. ATTEMPT NUMBER  1, TIME INCREMENT  2.286E-03
 
	SYMMETRIC DIRECT SPARSE SOLVER RUNNING ON
 	1 HOST:        1 MPI RANK  x 1 THREAD
 	NUMBER OF EQUATIONS:     18
 	NUMBER OF RHS:           1
 	NUMBER OF FLOPS:         2.109e+03

     CHECK POINT  START OF SOLVER     

     CHECK POINT  END OF SOLVER       

       ELAPSED USER TIME (SEC)      =   0.0000    
       ELAPSED SYSTEM TIME (SEC)    =   0.0000    
       ELAPSED TOTAL CPU TIME (SEC) =   0.0000    
       ELAPSED WALLCLOCK TIME (SEC) =            0

               CONVERGENCE CHECKS FOR EQUILIBRIUM ITERATION     1


 AVERAGE FORCE                      4.096E-04   TIME AVG. FORCE       1.522E-04
 LARGEST SCALED RESIDUAL FORCE     -3.758E-20   AT NODE          2   DOF  1
  CORRESPONDING RESIDUAL FORCE     -3.758E-20
 LARGEST INCREMENT OF DISP.         7.594E-08   AT NODE          1   DOF  2
 LARGEST CORRECTION TO DISP.        1.874E-14   AT NODE          4   DOF  1
          THE FORCE     EQUILIBRIUM RESPONSE WAS LINEAR IN THIS INCREMENT
          TIME INCREMENT MAY NOW INCREASE TO    3.430E-03

 ITERATION SUMMARY FOR THE INCREMENT:   1 TOTAL ITERATIONS, OF WHICH
   0 ARE SEVERE DISCONTINUITY ITERATIONS AND  1 ARE EQUILIBRIUM ITERATIONS.

 TIME INCREMENT COMPLETED  2.286E-03,  FRACTION OF STEP COMPLETED  2.178E-05
 STEP TIME COMPLETED       6.558E-03,  TOTAL TIME COMPLETED        6.558E-03


  INCREMENT     8 STARTS. ATTEMPT NUMBER  1, TIME INCREMENT  3.430E-03
 
	SYMMETRIC DIRECT SPARSE SOLVER RUNNING ON
 	1 HOST:        1 MPI RANK  x 1 THREAD
 	NUMBER OF EQUATIONS:     18
 	NUMBER OF RHS:           1
 	NUMBER OF FLOPS:         2.109e+03

     CHECK POINT  START OF SOLVER     

     CHECK POINT  END OF SOLVER       

       ELAPSED USER TIME (SEC)      =   0.0000    
       ELAPSED SYSTEM TIME (SEC)    =   0.0000    
       ELAPSED TOTAL CPU TIME (SEC) =   0.0000    
       ELAPSED WALLCLOCK TIME (SEC) =            0

               CONVERGENCE CHECKS FOR EQUILIBRIUM ITERATION     1


 AVERAGE FORCE                      6.238E-04   TIME AVG. FORCE       2.112E-04
 LARGEST SCALED RESIDUAL FORCE      4.243E-20   AT NODE          3   DOF  1
  CORRESPONDING RESIDUAL FORCE      4.243E-20
 LARGEST INCREMENT OF DISP.         1.139E-07   AT NODE          1   DOF  2
 LARGEST CORRECTION TO DISP.        4.217E-14   AT NODE          2   DOF  3
          THE FORCE     EQUILIBRIUM RESPONSE WAS LINEAR IN THIS INCREMENT
          TIME INCREMENT MAY NOW INCREASE TO    5.144E-03

 ITERATION SUMMARY FOR THE INCREMENT:   1 TOTAL ITERATIONS, OF WHICH
   0 ARE SEVERE DISCONTINUITY ITERATIONS AND  1 ARE EQUILIBRIUM ITERATIONS.

 TIME INCREMENT COMPLETED  3.430E-03,  FRACTION OF STEP COMPLETED  3.317E-05
 STEP TIME COMPLETED       9.988E-03,  TOTAL TIME COMPLETED        9.988E-03


  INCREMENT     9 STARTS. ATTEMPT NUMBER  1, TIME INCREMENT  5.144E-03
 
	SYMMETRIC DIRECT SPARSE SOLVER RUNNING ON
 	1 HOST:        1 MPI RANK  x 1 THREAD
 	NUMBER OF EQUATIONS:     18
 	NUMBER OF RHS:           1
 	NUMBER OF FLOPS:         2.109e+03

     CHECK POINT  START OF SOLVER     

     CHECK POINT  END OF SOLVER       

       ELAPSED USER TIME (SEC)      =   0.0000    
       ELAPSED SYSTEM TIME (SEC)    =   0.0000    
       ELAPSED TOTAL CPU TIME (SEC) =   0.0000    
       ELAPSED WALLCLOCK TIME (SEC) =            0

               CONVERGENCE CHECKS FOR EQUILIBRIUM ITERATION     1


 AVERAGE FORCE                      9.450E-04   TIME AVG. FORCE       2.927E-04
 LARGEST SCALED RESIDUAL FORCE     -2.062E-19   AT NODE          3   DOF  1
  CORRESPONDING RESIDUAL FORCE     -2.062E-19
 LARGEST INCREMENT OF DISP.         1.709E-07   AT NODE          1   DOF  2
 LARGEST CORRECTION TO DISP.        9.488E-14   AT NODE          3   DOF  1
          THE FORCE     EQUILIBRIUM RESPONSE WAS LINEAR IN THIS INCREMENT
          TIME INCREMENT MAY NOW INCREASE TO    7.717E-03

 ITERATION SUMMARY FOR THE INCREMENT:   1 TOTAL ITERATIONS, OF WHICH
   0 ARE SEVERE DISCONTINUITY ITERATIONS AND  1 ARE EQUILIBRIUM ITERATIONS.

 TIME INCREMENT COMPLETED  5.144E-03,  FRACTION OF STEP COMPLETED  5.026E-05
 STEP TIME COMPLETED       1.513E-02,  TOTAL TIME COMPLETED        1.513E-02


  INCREMENT    10 STARTS. ATTEMPT NUMBER  1, TIME INCREMENT  7.717E-03
 
	SYMMETRIC DIRECT SPARSE SOLVER RUNNING ON
 	1 HOST:        1 MPI RANK  x 1 THREAD
 	NUMBER OF EQUATIONS:     18
 	NUMBER OF RHS:           1
 	NUMBER OF FLOPS:         2.109e+03

     CHECK POINT  START OF SOLVER     

     CHECK POINT  END OF SOLVER       

       ELAPSED USER TIME (SEC)      =   0.0000    
       ELAPSED SYSTEM TIME (SEC)    =   0.0000    
       ELAPSED TOTAL CPU TIME (SEC) =   0.0000    
       ELAPSED WALLCLOCK TIME (SEC) =            0

               CONVERGENCE CHECKS FOR EQUILIBRIUM ITERATION     1


 AVERAGE FORCE                      1.427E-03   TIME AVG. FORCE       4.061E-04
 LARGEST SCALED RESIDUAL FORCE     -1.521E-19   AT NODE          1   DOF  1
  CORRESPONDING RESIDUAL FORCE     -1.521E-19
 LARGEST INCREMENT OF DISP.         2.563E-07   AT NODE          1   DOF  2
 LARGEST CORRECTION TO DISP.        2.135E-13   AT NODE          1   DOF  1
          THE FORCE     EQUILIBRIUM RESPONSE WAS LINEAR IN THIS INCREMENT
          TIME INCREMENT MAY NOW INCREASE TO    1.157E-02

 ITERATION SUMMARY FOR THE INCREMENT:   1 TOTAL ITERATIONS, OF WHICH
   0 ARE SEVERE DISCONTINUITY ITERATIONS AND  1 ARE EQUILIBRIUM ITERATIONS.

 TIME INCREMENT COMPLETED  7.717E-03,  FRACTION OF STEP COMPLETED  7.589E-05
 STEP TIME COMPLETED       2.285E-02,  TOTAL TIME COMPLETED        2.285E-02


  INCREMENT    11 STARTS. ATTEMPT NUMBER  1, TIME INCREMENT  1.157E-02
 
	SYMMETRIC DIRECT SPARSE SOLVER RUNNING ON
 	1 HOST:        1 MPI RANK  x 1 THREAD
 	NUMBER OF EQUATIONS:     18
 	NUMBER OF RHS:           1
 	NUMBER OF FLOPS:         2.109e+03

     CHECK POINT  START OF SOLVER     

     CHECK POINT  END OF SOLVER       

       ELAPSED USER TIME (SEC)      =   0.0000    
       ELAPSED SYSTEM TIME (SEC)    =   0.0000    
       ELAPSED TOTAL CPU TIME (SEC) =   0.0000    
       ELAPSED WALLCLOCK TIME (SEC) =            0

               CONVERGENCE CHECKS FOR EQUILIBRIUM ITERATION     1


 AVERAGE FORCE                      2.150E-03   TIME AVG. FORCE       5.647E-04
 LARGEST SCALED RESIDUAL FORCE      5.363E-20   AT NODE          3   DOF  1
  CORRESPONDING RESIDUAL FORCE      5.363E-20
 LARGEST INCREMENT OF DISP.         3.844E-07   AT NODE          1   DOF  2
 LARGEST CORRECTION TO DISP.        4.803E-13   AT NODE          4   DOF  1
          THE FORCE     EQUILIBRIUM RESPONSE WAS LINEAR IN THIS INCREMENT
          TIME INCREMENT MAY NOW INCREASE TO    1.736E-02

 ITERATION SUMMARY FOR THE INCREMENT:   1 TOTAL ITERATIONS, OF WHICH
   0 ARE SEVERE DISCONTINUITY ITERATIONS AND  1 ARE EQUILIBRIUM ITERATIONS.

 TIME INCREMENT COMPLETED  1.157E-02,  FRACTION OF STEP COMPLETED  1.143E-04
 STEP TIME COMPLETED       3.442E-02,  TOTAL TIME COMPLETED        3.442E-02


  INCREMENT    12 STARTS. ATTEMPT NUMBER  1, TIME INCREMENT  1.736E-02
 
	SYMMETRIC DIRECT SPARSE SOLVER RUNNING ON
 	1 HOST:        1 MPI RANK  x 1 THREAD
 	NUMBER OF EQUATIONS:     18
 	NUMBER OF RHS:           1
 	NUMBER OF FLOPS:         2.109e+03

     CHECK POINT  START OF SOLVER     

     CHECK POINT  END OF SOLVER       

       ELAPSED USER TIME (SEC)      =   0.0000    
       ELAPSED SYSTEM TIME (SEC)    =   0.0000    
       ELAPSED TOTAL CPU TIME (SEC) =   0.0000    
       ELAPSED WALLCLOCK TIME (SEC) =            0

               CONVERGENCE CHECKS FOR EQUILIBRIUM ITERATION     1


 AVERAGE FORCE                      3.234E-03   TIME AVG. FORCE       7.871E-04
 LARGEST SCALED RESIDUAL FORCE      6.288E-19   AT NODE          1   DOF  1
  CORRESPONDING RESIDUAL FORCE      6.288E-19
 LARGEST INCREMENT OF DISP.         5.767E-07   AT NODE          1   DOF  2
 LARGEST CORRECTION TO DISP.        1.081E-12   AT NODE          3   DOF  1
          THE FORCE     EQUILIBRIUM RESPONSE WAS LINEAR IN THIS INCREMENT
          TIME INCREMENT MAY NOW INCREASE TO    2.604E-02

 ITERATION SUMMARY FOR THE INCREMENT:   1 TOTAL ITERATIONS, OF WHICH
   0 ARE SEVERE DISCONTINUITY ITERATIONS AND  1 ARE EQUILIBRIUM ITERATIONS.

 TIME INCREMENT COMPLETED  1.736E-02,  FRACTION OF STEP COMPLETED  1.720E-04
 STEP TIME COMPLETED       5.179E-02,  TOTAL TIME COMPLETED        5.179E-02


  INCREMENT    13 STARTS. ATTEMPT NUMBER  1, TIME INCREMENT  2.604E-02
 
	SYMMETRIC DIRECT SPARSE SOLVER RUNNING ON
 	1 HOST:        1 MPI RANK  x 1 THREAD
 	NUMBER OF EQUATIONS:     18
 	NUMBER OF RHS:           1
 	NUMBER OF FLOPS:         2.109e+03

     CHECK POINT  START OF SOLVER     

     CHECK POINT  END OF SOLVER       

       ELAPSED USER TIME (SEC)      =   0.0000    
       ELAPSED SYSTEM TIME (SEC)    =   0.0000    
       ELAPSED TOTAL CPU TIME (SEC) =   0.0000    
       ELAPSED WALLCLOCK TIME (SEC) =            0

               CONVERGENCE CHECKS FOR EQUILIBRIUM ITERATION     1


 AVERAGE FORCE                      4.860E-03   TIME AVG. FORCE       1.100E-03
 LARGEST SCALED RESIDUAL FORCE     -6.147E-19   AT NODE          1   DOF  1
  CORRESPONDING RESIDUAL FORCE     -6.147E-19
 LARGEST INCREMENT OF DISP.         8.650E-07   AT NODE          1   DOF  2
 LARGEST CORRECTION TO DISP.        2.431E-12   AT NODE          1   DOF  1
          THE FORCE     EQUILIBRIUM RESPONSE WAS LINEAR IN THIS INCREMENT
          TIME INCREMENT MAY NOW INCREASE TO    3.907E-02

 ITERATION SUMMARY FOR THE INCREMENT:   1 TOTAL ITERATIONS, OF WHICH
   0 ARE SEVERE DISCONTINUITY ITERATIONS AND  1 ARE EQUILIBRIUM ITERATIONS.

 TIME INCREMENT COMPLETED  2.604E-02,  FRACTION OF STEP COMPLETED  2.585E-04
 STEP TIME COMPLETED       7.783E-02,  TOTAL TIME COMPLETED        7.783E-02


  INCREMENT    14 STARTS. ATTEMPT NUMBER  1, TIME INCREMENT  3.907E-02
 
	SYMMETRIC DIRECT SPARSE SOLVER RUNNING ON
 	1 HOST:        1 MPI RANK  x 1 THREAD
 	NUMBER OF EQUATIONS:     18
 	NUMBER OF RHS:           1
 	NUMBER OF FLOPS:         2.109e+03

     CHECK POINT  START OF SOLVER     

     CHECK POINT  END OF SOLVER       

       ELAPSED USER TIME (SEC)      =   0.0000    
       ELAPSED SYSTEM TIME (SEC)    =   0.0000    
       ELAPSED TOTAL CPU TIME (SEC) =   0.0000    
       ELAPSED WALLCLOCK TIME (SEC) =            0

               CONVERGENCE CHECKS FOR EQUILIBRIUM ITERATION     1


 AVERAGE FORCE                      7.300E-03   TIME AVG. FORCE       1.543E-03
 LARGEST SCALED RESIDUAL FORCE      2.039E-18   AT NODE          1   DOF  1
  CORRESPONDING RESIDUAL FORCE      2.039E-18
 LARGEST INCREMENT OF DISP.         1.297E-06   AT NODE          1   DOF  2
 LARGEST CORRECTION TO DISP.        5.471E-12   AT NODE          5   DOF  3
          THE FORCE     EQUILIBRIUM RESPONSE WAS LINEAR IN THIS INCREMENT
          TIME INCREMENT MAY NOW INCREASE TO    5.860E-02

 ITERATION SUMMARY FOR THE INCREMENT:   1 TOTAL ITERATIONS, OF WHICH
   0 ARE SEVERE DISCONTINUITY ITERATIONS AND  1 ARE EQUILIBRIUM ITERATIONS.

 TIME INCREMENT COMPLETED  3.907E-02,  FRACTION OF STEP COMPLETED  3.882E-04
 STEP TIME COMPLETED       0.117    ,  TOTAL TIME COMPLETED        0.117    


  INCREMENT    15 STARTS. ATTEMPT NUMBER  1, TIME INCREMENT  5.860E-02
 
	SYMMETRIC DIRECT SPARSE SOLVER RUNNING ON
 	1 HOST:        1 MPI RANK  x 1 THREAD
 	NUMBER OF EQUATIONS:     18
 	NUMBER OF RHS:           1
 	NUMBER OF FLOPS:         2.109e+03

     CHECK POINT  START OF SOLVER     

     CHECK POINT  END OF SOLVER       

       ELAPSED USER TIME (SEC)      =   0.0000    
       ELAPSED SYSTEM TIME (SEC)    =   0.0000    
       ELAPSED TOTAL CPU TIME (SEC) =   0.0000    
       ELAPSED WALLCLOCK TIME (SEC) =            0

               CONVERGENCE CHECKS FOR EQUILIBRIUM ITERATION     1


 AVERAGE FORCE                      1.096E-02   TIME AVG. FORCE       2.171E-03
 LARGEST SCALED RESIDUAL FORCE      3.865E-18   AT NODE          3   DOF  1
  CORRESPONDING RESIDUAL FORCE      3.865E-18
 LARGEST INCREMENT OF DISP.         1.946E-06   AT NODE          1   DOF  2
 LARGEST CORRECTION TO DISP.        1.231E-11   AT NODE          1   DOF  1
          THE FORCE     EQUILIBRIUM RESPONSE WAS LINEAR IN THIS INCREMENT
          TIME INCREMENT MAY NOW INCREASE TO    8.790E-02

 ITERATION SUMMARY FOR THE INCREMENT:   1 TOTAL ITERATIONS, OF WHICH
   0 ARE SEVERE DISCONTINUITY ITERATIONS AND  1 ARE EQUILIBRIUM ITERATIONS.

 TIME INCREMENT COMPLETED  5.860E-02,  FRACTION OF STEP COMPLETED  5.829E-04
 STEP TIME COMPLETED       0.175    ,  TOTAL TIME COMPLETED        0.175    


  INCREMENT    16 STARTS. ATTEMPT NUMBER  1, TIME INCREMENT  8.790E-02
 
	SYMMETRIC DIRECT SPARSE SOLVER RUNNING ON
 	1 HOST:        1 MPI RANK  x 1 THREAD
 	NUMBER OF EQUATIONS:     18
 	NUMBER OF RHS:           1
 	NUMBER OF FLOPS:         2.109e+03

     CHECK POINT  START OF SOLVER     

     CHECK POINT  END OF SOLVER       

       ELAPSED USER TIME (SEC)      =   0.0000    
       ELAPSED SYSTEM TIME (SEC)    =   0.0000    
       ELAPSED TOTAL CPU TIME (SEC) =   0.0000    
       ELAPSED WALLCLOCK TIME (SEC) =            0

               CONVERGENCE CHECKS FOR EQUILIBRIUM ITERATION     1


 AVERAGE FORCE                      1.645E-02   TIME AVG. FORCE       3.063E-03
 LARGEST SCALED RESIDUAL FORCE      1.527E-17   AT NODE          4   DOF  1
  CORRESPONDING RESIDUAL FORCE      1.527E-17
 LARGEST INCREMENT OF DISP.         2.919E-06   AT NODE          1   DOF  2
 LARGEST CORRECTION TO DISP.        2.769E-11   AT NODE          5   DOF  3
          THE FORCE     EQUILIBRIUM RESPONSE WAS LINEAR IN THIS INCREMENT
          TIME INCREMENT MAY NOW INCREASE TO    0.132    

 ITERATION SUMMARY FOR THE INCREMENT:   1 TOTAL ITERATIONS, OF WHICH
   0 ARE SEVERE DISCONTINUITY ITERATIONS AND  1 ARE EQUILIBRIUM ITERATIONS.

 TIME INCREMENT COMPLETED  8.790E-02,  FRACTION OF STEP COMPLETED  8.748E-04
 STEP TIME COMPLETED       0.263    ,  TOTAL TIME COMPLETED        0.263    


  INCREMENT    17 STARTS. ATTEMPT NUMBER  1, TIME INCREMENT  0.132    
 
	SYMMETRIC DIRECT SPARSE SOLVER RUNNING ON
 	1 HOST:        1 MPI RANK  x 1 THREAD
 	NUMBER OF EQUATIONS:     18
 	NUMBER OF RHS:           1
 	NUMBER OF FLOPS:         2.109e+03

     CHECK POINT  START OF SOLVER     

     CHECK POINT  END OF SOLVER       

       ELAPSED USER TIME (SEC)      =   0.0000    
       ELAPSED SYSTEM TIME (SEC)    =   0.0000    
       ELAPSED TOTAL CPU TIME (SEC) =   0.0000    
       ELAPSED WALLCLOCK TIME (SEC) =            0

               CONVERGENCE CHECKS FOR EQUILIBRIUM ITERATION     1


 AVERAGE FORCE                      2.468E-02   TIME AVG. FORCE       4.335E-03
 LARGEST SCALED RESIDUAL FORCE      8.267E-17   AT NODE          1   DOF  1
  CORRESPONDING RESIDUAL FORCE      8.267E-17
 LARGEST INCREMENT OF DISP.         4.379E-06   AT NODE          1   DOF  2
 LARGEST CORRECTION TO DISP.        6.231E-11   AT NODE          1   DOF  1
          THE FORCE     EQUILIBRIUM RESPONSE WAS LINEAR IN THIS INCREMENT
          TIME INCREMENT MAY NOW INCREASE TO    0.198    

 ITERATION SUMMARY FOR THE INCREMENT:   1 TOTAL ITERATIONS, OF WHICH
   0 ARE SEVERE DISCONTINUITY ITERATIONS AND  1 ARE EQUILIBRIUM ITERATIONS.

 TIME INCREMENT COMPLETED  0.132    ,  FRACTION OF STEP COMPLETED  1.313E-03
 STEP TIME COMPLETED       0.395    ,  TOTAL TIME COMPLETED        0.395    


  INCREMENT    18 STARTS. ATTEMPT NUMBER  1, TIME INCREMENT  0.198    
 
	SYMMETRIC DIRECT SPARSE SOLVER RUNNING ON
 	1 HOST:        1 MPI RANK  x 1 THREAD
 	NUMBER OF EQUATIONS:     18
 	NUMBER OF RHS:           1
 	NUMBER OF FLOPS:         2.109e+03

     CHECK POINT  START OF SOLVER     

     CHECK POINT  END OF SOLVER       

       ELAPSED USER TIME (SEC)      =   0.0000    
       ELAPSED SYSTEM TIME (SEC)    =   0.0000    
       ELAPSED TOTAL CPU TIME (SEC) =   0.0000    
       ELAPSED WALLCLOCK TIME (SEC) =            0

               CONVERGENCE CHECKS FOR EQUILIBRIUM ITERATION     1


 AVERAGE FORCE                      3.703E-02   TIME AVG. FORCE       6.151E-03
 LARGEST SCALED RESIDUAL FORCE      4.132E-16   AT NODE          4   DOF  1
  CORRESPONDING RESIDUAL FORCE      4.132E-16
 LARGEST INCREMENT OF DISP.         6.568E-06   AT NODE          1   DOF  2
 LARGEST CORRECTION TO DISP.        1.402E-10   AT NODE          3   DOF  1
          THE FORCE     EQUILIBRIUM RESPONSE WAS LINEAR IN THIS INCREMENT
          TIME INCREMENT MAY NOW INCREASE TO    0.297    

 ITERATION SUMMARY FOR THE INCREMENT:   1 TOTAL ITERATIONS, OF WHICH
   0 ARE SEVERE DISCONTINUITY ITERATIONS AND  1 ARE EQUILIBRIUM ITERATIONS.

 TIME INCREMENT COMPLETED  0.198    ,  FRACTION OF STEP COMPLETED  1.970E-03
 STEP TIME COMPLETED       0.593    ,  TOTAL TIME COMPLETED        0.593    


  INCREMENT    19 STARTS. ATTEMPT NUMBER  1, TIME INCREMENT  0.297    
 
	SYMMETRIC DIRECT SPARSE SOLVER RUNNING ON
 	1 HOST:        1 MPI RANK  x 1 THREAD
 	NUMBER OF EQUATIONS:     18
 	NUMBER OF RHS:           1
 	NUMBER OF FLOPS:         2.109e+03

     CHECK POINT  START OF SOLVER     

     CHECK POINT  END OF SOLVER       

       ELAPSED USER TIME (SEC)      =   0.0000    
       ELAPSED SYSTEM TIME (SEC)    =   0.0000    
       ELAPSED TOTAL CPU TIME (SEC) =   0.0000    
       ELAPSED WALLCLOCK TIME (SEC) =            0

               CONVERGENCE CHECKS FOR EQUILIBRIUM ITERATION     1


 AVERAGE FORCE                      5.554E-02   TIME AVG. FORCE       8.751E-03
 LARGEST SCALED RESIDUAL FORCE      2.047E-15   AT NODE          1   DOF  1
  CORRESPONDING RESIDUAL FORCE      2.047E-15
 LARGEST INCREMENT OF DISP.         9.853E-06   AT NODE          1   DOF  2
 LARGEST CORRECTION TO DISP.        3.153E-10   AT NODE          5   DOF  3
          THE FORCE     EQUILIBRIUM RESPONSE WAS LINEAR IN THIS INCREMENT
          TIME INCREMENT MAY NOW INCREASE TO    0.445    

 ITERATION SUMMARY FOR THE INCREMENT:   1 TOTAL ITERATIONS, OF WHICH
   0 ARE SEVERE DISCONTINUITY ITERATIONS AND  1 ARE EQUILIBRIUM ITERATIONS.

 TIME INCREMENT COMPLETED  0.297    ,  FRACTION OF STEP COMPLETED  2.955E-03
 STEP TIME COMPLETED       0.890    ,  TOTAL TIME COMPLETED        0.890    


  INCREMENT    20 STARTS. ATTEMPT NUMBER  1, TIME INCREMENT  0.445    
 
	SYMMETRIC DIRECT SPARSE SOLVER RUNNING ON
 	1 HOST:        1 MPI RANK  x 1 THREAD
 	NUMBER OF EQUATIONS:     18
 	NUMBER OF RHS:           1
 	NUMBER OF FLOPS:         2.109e+03

     CHECK POINT  START OF SOLVER     

     CHECK POINT  END OF SOLVER       

       ELAPSED USER TIME (SEC)      =   0.0000    
       ELAPSED SYSTEM TIME (SEC)    =   0.0000    
       ELAPSED TOTAL CPU TIME (SEC) =   0.0000    
       ELAPSED WALLCLOCK TIME (SEC) =            0

               CONVERGENCE CHECKS FOR EQUILIBRIUM ITERATION     1


 AVERAGE FORCE                      8.331E-02   TIME AVG. FORCE       1.248E-02
 LARGEST SCALED RESIDUAL FORCE      1.036E-14   AT NODE          1   DOF  1
  CORRESPONDING RESIDUAL FORCE      1.036E-14
 LARGEST INCREMENT OF DISP.         1.478E-05   AT NODE          1   DOF  2
 LARGEST CORRECTION TO DISP.        7.093E-10   AT NODE          4   DOF  1
          THE FORCE     EQUILIBRIUM RESPONSE WAS LINEAR IN THIS INCREMENT
          TIME INCREMENT MAY NOW INCREASE TO    0.667    

 ITERATION SUMMARY FOR THE INCREMENT:   1 TOTAL ITERATIONS, OF WHICH
   0 ARE SEVERE DISCONTINUITY ITERATIONS AND  1 ARE EQUILIBRIUM ITERATIONS.

 TIME INCREMENT COMPLETED  0.445    ,  FRACTION OF STEP COMPLETED  4.433E-03
 STEP TIME COMPLETED        1.33    ,  TOTAL TIME COMPLETED         1.33    


  INCREMENT    21 STARTS. ATTEMPT NUMBER  1, TIME INCREMENT  0.667    
 
	SYMMETRIC DIRECT SPARSE SOLVER RUNNING ON
 	1 HOST:        1 MPI RANK  x 1 THREAD
 	NUMBER OF EQUATIONS:     18
 	NUMBER OF RHS:           1
 	NUMBER OF FLOPS:         2.109e+03

     CHECK POINT  START OF SOLVER     

     CHECK POINT  END OF SOLVER       

       ELAPSED USER TIME (SEC)      =   0.0000    
       ELAPSED SYSTEM TIME (SEC)    =   0.0000    
       ELAPSED TOTAL CPU TIME (SEC) =   0.0000    
       ELAPSED WALLCLOCK TIME (SEC) =            0

               CONVERGENCE CHECKS FOR EQUILIBRIUM ITERATION     1


 AVERAGE FORCE                      0.125       TIME AVG. FORCE       1.783E-02
 LARGEST SCALED RESIDUAL FORCE      5.243E-14   AT NODE          4   DOF  1
  CORRESPONDING RESIDUAL FORCE      5.243E-14
 LARGEST INCREMENT OF DISP.         2.217E-05   AT NODE          1   DOF  2
 LARGEST CORRECTION TO DISP.        1.595E-09   AT NODE          2   DOF  3
          THE FORCE     EQUILIBRIUM RESPONSE WAS LINEAR IN THIS INCREMENT
          TIME INCREMENT MAY NOW INCREASE TO     1.00    

 ITERATION SUMMARY FOR THE INCREMENT:   1 TOTAL ITERATIONS, OF WHICH
   0 ARE SEVERE DISCONTINUITY ITERATIONS AND  1 ARE EQUILIBRIUM ITERATIONS.

 TIME INCREMENT COMPLETED  0.667    ,  FRACTION OF STEP COMPLETED  6.650E-03
 STEP TIME COMPLETED        2.00    ,  TOTAL TIME COMPLETED         2.00    


  INCREMENT    22 STARTS. ATTEMPT NUMBER  1, TIME INCREMENT   1.00    
 
	SYMMETRIC DIRECT SPARSE SOLVER RUNNING ON
 	1 HOST:        1 MPI RANK  x 1 THREAD
 	NUMBER OF EQUATIONS:     18
 	NUMBER OF RHS:           1
 	NUMBER OF FLOPS:         2.109e+03

     CHECK POINT  START OF SOLVER     

     CHECK POINT  END OF SOLVER       

       ELAPSED USER TIME (SEC)      =   0.0000    
       ELAPSED SYSTEM TIME (SEC)    =   0.0000    
       ELAPSED TOTAL CPU TIME (SEC) =   0.0000    
       ELAPSED WALLCLOCK TIME (SEC) =            0

               CONVERGENCE CHECKS FOR EQUILIBRIUM ITERATION     1


 AVERAGE FORCE                      0.187       TIME AVG. FORCE       2.554E-02
 LARGEST SCALED RESIDUAL FORCE      2.653E-13   AT NODE          6   DOF  3
  CORRESPONDING RESIDUAL FORCE      2.653E-13
 LARGEST INCREMENT OF DISP.         3.325E-05   AT NODE          1   DOF  2
 LARGEST CORRECTION TO DISP.        3.588E-09   AT NODE          3   DOF  1
          THE FORCE     EQUILIBRIUM RESPONSE WAS LINEAR IN THIS INCREMENT
          TIME INCREMENT MAY NOW INCREASE TO     1.50    

 ITERATION SUMMARY FOR THE INCREMENT:   1 TOTAL ITERATIONS, OF WHICH
   0 ARE SEVERE DISCONTINUITY ITERATIONS AND  1 ARE EQUILIBRIUM ITERATIONS.

 TIME INCREMENT COMPLETED   1.00    ,  FRACTION OF STEP COMPLETED  9.975E-03
 STEP TIME COMPLETED        3.00    ,  TOTAL TIME COMPLETED         3.00    


  INCREMENT    23 STARTS. ATTEMPT NUMBER  1, TIME INCREMENT   1.50    
 
	SYMMETRIC DIRECT SPARSE SOLVER RUNNING ON
 	1 HOST:        1 MPI RANK  x 1 THREAD
 	NUMBER OF EQUATIONS:     18
 	NUMBER OF RHS:           1
 	NUMBER OF FLOPS:         2.109e+03

     CHECK POINT  START OF SOLVER     

     CHECK POINT  END OF SOLVER       

       ELAPSED USER TIME (SEC)      =   0.0000    
       ELAPSED SYSTEM TIME (SEC)    =   0.0000    
       ELAPSED TOTAL CPU TIME (SEC) =   0.0000    
       ELAPSED WALLCLOCK TIME (SEC) =            0

               CONVERGENCE CHECKS FOR EQUILIBRIUM ITERATION     1


 AVERAGE FORCE                      0.373       TIME AVG. FORCE       4.066E-02
 LARGEST SCALED RESIDUAL FORCE     -0.107       AT NODE          2   DOF  3
  CORRESPONDING RESIDUAL FORCE     -0.107    
 LARGEST INCREMENT OF DISP.         5.010E-04   AT NODE          1   DOF  2
 LARGEST CORRECTION TO DISP.        4.512E-04   AT NODE          1   DOF  2
          FORCE     EQUILIBRIUM NOT ACHIEVED WITHIN TOLERANCE.
 
	SYMMETRIC DIRECT SPARSE SOLVER RUNNING ON
 	1 HOST:        1 MPI RANK  x 1 THREAD
 	NUMBER OF EQUATIONS:     18
 	NUMBER OF RHS:           1
 	NUMBER OF FLOPS:         2.109e+03

     CHECK POINT  START OF SOLVER     

     CHECK POINT  END OF SOLVER       

       ELAPSED USER TIME (SEC)      =   0.0000    
       ELAPSED SYSTEM TIME (SEC)    =   0.0000    
       ELAPSED TOTAL CPU TIME (SEC) =   0.0000    
       ELAPSED WALLCLOCK TIME (SEC) =            0

               CONVERGENCE CHECKS FOR EQUILIBRIUM ITERATION     2


 AVERAGE FORCE                      0.283       TIME AVG. FORCE       3.672E-02
 LARGEST SCALED RESIDUAL FORCE      5.050E-04   AT NODE          4   DOF  1
  CORRESPONDING RESIDUAL FORCE      5.050E-04
 LARGEST INCREMENT OF DISP.         5.010E-04   AT NODE          1   DOF  2
 LARGEST CORRECTION TO DISP.       -4.588E-05   AT NODE          2   DOF  3
          FORCE     EQUILIBRIUM NOT ACHIEVED WITHIN TOLERANCE.
 
	SYMMETRIC DIRECT SPARSE SOLVER RUNNING ON
 	1 HOST:        1 MPI RANK  x 1 THREAD
 	NUMBER OF EQUATIONS:     18
 	NUMBER OF RHS:           1
 	NUMBER OF FLOPS:         2.109e+03

     CHECK POINT  START OF SOLVER     

     CHECK POINT  END OF SOLVER       

       ELAPSED USER TIME (SEC)      =   0.0000    
       ELAPSED SYSTEM TIME (SEC)    =   0.0000    
       ELAPSED TOTAL CPU TIME (SEC) =   0.0000    
       ELAPSED WALLCLOCK TIME (SEC) =            0

               CONVERGENCE CHECKS FOR EQUILIBRIUM ITERATION     3


 AVERAGE FORCE                      0.339       TIME AVG. FORCE       3.917E-02
 LARGEST SCALED RESIDUAL FORCE     -5.476E-07   AT NODE          1   DOF  1
  CORRESPONDING RESIDUAL FORCE     -5.476E-07
 LARGEST INCREMENT OF DISP.         5.010E-04   AT NODE          1   DOF  2
 LARGEST CORRECTION TO DISP.        4.759E-07   AT NODE          2   DOF  1
          THE FORCE     EQUILIBRIUM EQUATIONS HAVE CONVERGED
          TIME INCREMENT MAY NOW INCREASE TO     2.25    

 ITERATION SUMMARY FOR THE INCREMENT:   3 TOTAL ITERATIONS, OF WHICH
   0 ARE SEVERE DISCONTINUITY ITERATIONS AND  3 ARE EQUILIBRIUM ITERATIONS.

 TIME INCREMENT COMPLETED   1.50    ,  FRACTION OF STEP COMPLETED  1.496E-02
 STEP TIME COMPLETED        4.51    ,  TOTAL TIME COMPLETED         4.51    


  INCREMENT    24 STARTS. ATTEMPT NUMBER  1, TIME INCREMENT   2.25    
 
	SYMMETRIC DIRECT SPARSE SOLVER RUNNING ON
 	1 HOST:        1 MPI RANK  x 1 THREAD
 	NUMBER OF EQUATIONS:     18
 	NUMBER OF RHS:           1
 	NUMBER OF FLOPS:         2.109e+03

     CHECK POINT  START OF SOLVER     

     CHECK POINT  END OF SOLVER       

       ELAPSED USER TIME (SEC)      =   0.0000    
       ELAPSED SYSTEM TIME (SEC)    =   0.0000    
       ELAPSED TOTAL CPU TIME (SEC) =   0.0000    
       ELAPSED WALLCLOCK TIME (SEC) =            0

               CONVERGENCE CHECKS FOR EQUILIBRIUM ITERATION     1


 AVERAGE FORCE                      0.302       TIME AVG. FORCE       5.011E-02
 LARGEST SCALED RESIDUAL FORCE     -2.135E-03   AT NODE          1   DOF  1
  CORRESPONDING RESIDUAL FORCE     -2.135E-03
 LARGEST INCREMENT OF DISP.         7.550E-04   AT NODE          1   DOF  2
 LARGEST CORRECTION TO DISP.       -1.556E-04   AT NODE          3   DOF  1
          FORCE     EQUILIBRIUM NOT ACHIEVED WITHIN TOLERANCE.
 
	SYMMETRIC DIRECT SPARSE SOLVER RUNNING ON
 	1 HOST:        1 MPI RANK  x 1 THREAD
 	NUMBER OF EQUATIONS:     18
 	NUMBER OF RHS:           1
 	NUMBER OF FLOPS:         2.109e+03

     CHECK POINT  START OF SOLVER     

     CHECK POINT  END OF SOLVER       

       ELAPSED USER TIME (SEC)      =   0.0000    
       ELAPSED SYSTEM TIME (SEC)    =   0.0000    
       ELAPSED TOTAL CPU TIME (SEC) =   0.0000    
       ELAPSED WALLCLOCK TIME (SEC) =            0

               CONVERGENCE CHECKS FOR EQUILIBRIUM ITERATION     2


 AVERAGE FORCE                      0.329       TIME AVG. FORCE       5.123E-02
 LARGEST SCALED RESIDUAL FORCE      6.432E-06   AT NODE          4   DOF  1
  CORRESPONDING RESIDUAL FORCE      6.432E-06
 LARGEST INCREMENT OF DISP.         7.550E-04   AT NODE          1   DOF  2
 LARGEST CORRECTION TO DISP.       -5.424E-06   AT NODE          3   DOF  1
          THE FORCE     EQUILIBRIUM EQUATIONS HAVE CONVERGED
          TIME INCREMENT MAY NOW INCREASE TO     3.01    

 ITERATION SUMMARY FOR THE INCREMENT:   2 TOTAL ITERATIONS, OF WHICH
   0 ARE SEVERE DISCONTINUITY ITERATIONS AND  2 ARE EQUILIBRIUM ITERATIONS.

 TIME INCREMENT COMPLETED   2.25    ,  FRACTION OF STEP COMPLETED  2.244E-02
 STEP TIME COMPLETED        6.76    ,  TOTAL TIME COMPLETED         6.76    


  INCREMENT    25 STARTS. ATTEMPT NUMBER  1, TIME INCREMENT   3.01    
 
	SYMMETRIC DIRECT SPARSE SOLVER RUNNING ON
 	1 HOST:        1 MPI RANK  x 1 THREAD
 	NUMBER OF EQUATIONS:     18
 	NUMBER OF RHS:           1
 	NUMBER OF FLOPS:         2.109e+03

     CHECK POINT  START OF SOLVER     

     CHECK POINT  END OF SOLVER       

       ELAPSED USER TIME (SEC)      =   0.0000    
       ELAPSED SYSTEM TIME (SEC)    =   0.0000    
       ELAPSED TOTAL CPU TIME (SEC) =   0.0000    
       ELAPSED WALLCLOCK TIME (SEC) =            0

               CONVERGENCE CHECKS FOR EQUILIBRIUM ITERATION     1


 AVERAGE FORCE                      0.334       TIME AVG. FORCE       6.255E-02
 LARGEST SCALED RESIDUAL FORCE     -1.357E-05   AT NODE          2   DOF  1
  CORRESPONDING RESIDUAL FORCE     -1.357E-05
 LARGEST INCREMENT OF DISP.         1.009E-03   AT NODE          1   DOF  2
 LARGEST CORRECTION TO DISP.        1.933E-05   AT NODE          1   DOF  1
 ESTIMATE OF DISP.    CORRECTION   -1.298E-08
 FORCE     EQUILIB. ACCEPTED BASED ON SMALL RESIDUAL AND ESTIMATED CORRECTION

 ITERATION SUMMARY FOR THE INCREMENT:   1 TOTAL ITERATIONS, OF WHICH
   0 ARE SEVERE DISCONTINUITY ITERATIONS AND  1 ARE EQUILIBRIUM ITERATIONS.

 TIME INCREMENT COMPLETED   3.01    ,  FRACTION OF STEP COMPLETED  3.244E-02
 STEP TIME COMPLETED        9.77    ,  TOTAL TIME COMPLETED         9.77    


  INCREMENT    26 STARTS. ATTEMPT NUMBER  1, TIME INCREMENT   3.01    
 
	SYMMETRIC DIRECT SPARSE SOLVER RUNNING ON
 	1 HOST:        1 MPI RANK  x 1 THREAD
 	NUMBER OF EQUATIONS:     18
 	NUMBER OF RHS:           1
 	NUMBER OF FLOPS:         2.109e+03

     CHECK POINT  START OF SOLVER     

     CHECK POINT  END OF SOLVER       

       ELAPSED USER TIME (SEC)      =   0.0000    
       ELAPSED SYSTEM TIME (SEC)    =   0.0000    
       ELAPSED TOTAL CPU TIME (SEC) =   0.0000    
       ELAPSED WALLCLOCK TIME (SEC) =            0

               CONVERGENCE CHECKS FOR EQUILIBRIUM ITERATION     1


 AVERAGE FORCE                      0.336       TIME AVG. FORCE       7.307E-02
 LARGEST SCALED RESIDUAL FORCE     -9.339E-06   AT NODE          2   DOF  1
  CORRESPONDING RESIDUAL FORCE     -9.339E-06
 LARGEST INCREMENT OF DISP.         1.009E-03   AT NODE          1   DOF  2
 LARGEST CORRECTION TO DISP.        1.841E-05   AT NODE          1   DOF  1
 ESTIMATE OF DISP.    CORRECTION   -7.436E-09
 FORCE     EQUILIB. ACCEPTED BASED ON SMALL RESIDUAL AND ESTIMATED CORRECTION

 ITERATION SUMMARY FOR THE INCREMENT:   1 TOTAL ITERATIONS, OF WHICH
   0 ARE SEVERE DISCONTINUITY ITERATIONS AND  1 ARE EQUILIBRIUM ITERATIONS.

 TIME INCREMENT COMPLETED   3.01    ,  FRACTION OF STEP COMPLETED  4.244E-02
 STEP TIME COMPLETED        12.8    ,  TOTAL TIME COMPLETED         12.8    


  INCREMENT    27 STARTS. ATTEMPT NUMBER  1, TIME INCREMENT   3.01    
 
	SYMMETRIC DIRECT SPARSE SOLVER RUNNING ON
 	1 HOST:        1 MPI RANK  x 1 THREAD
 	NUMBER OF EQUATIONS:     18
 	NUMBER OF RHS:           1
 	NUMBER OF FLOPS:         2.109e+03

     CHECK POINT  START OF SOLVER     

     CHECK POINT  END OF SOLVER       

       ELAPSED USER TIME (SEC)      =   0.0000    
       ELAPSED SYSTEM TIME (SEC)    =   0.0000    
       ELAPSED TOTAL CPU TIME (SEC) =   0.0000    
       ELAPSED WALLCLOCK TIME (SEC) =            0

               CONVERGENCE CHECKS FOR EQUILIBRIUM ITERATION     1


 AVERAGE FORCE                      0.381       TIME AVG. FORCE       8.447E-02
 LARGEST SCALED RESIDUAL FORCE     -6.578E-06   AT NODE          2   DOF  1
  CORRESPONDING RESIDUAL FORCE     -6.578E-06
 LARGEST INCREMENT OF DISP.         1.009E-03   AT NODE          1   DOF  2
 LARGEST CORRECTION TO DISP.        1.661E-05   AT NODE          1   DOF  1
 ESTIMATE OF DISP.    CORRECTION   -4.737E-09
 FORCE     EQUILIB. ACCEPTED BASED ON SMALL RESIDUAL AND ESTIMATED CORRECTION

 ITERATION SUMMARY FOR THE INCREMENT:   1 TOTAL ITERATIONS, OF WHICH
   0 ARE SEVERE DISCONTINUITY ITERATIONS AND  1 ARE EQUILIBRIUM ITERATIONS.

 TIME INCREMENT COMPLETED   3.01    ,  FRACTION OF STEP COMPLETED  5.244E-02
 STEP TIME COMPLETED        15.8    ,  TOTAL TIME COMPLETED         15.8    


  INCREMENT    28 STARTS. ATTEMPT NUMBER  1, TIME INCREMENT   3.01    
 
	SYMMETRIC DIRECT SPARSE SOLVER RUNNING ON
 	1 HOST:        1 MPI RANK  x 1 THREAD
 	NUMBER OF EQUATIONS:     18
 	NUMBER OF RHS:           1
 	NUMBER OF FLOPS:         2.109e+03

     CHECK POINT  START OF SOLVER     

     CHECK POINT  END OF SOLVER       

       ELAPSED USER TIME (SEC)      =   0.0000    
       ELAPSED SYSTEM TIME (SEC)    =   0.0000    
       ELAPSED TOTAL CPU TIME (SEC) =   0.0000    
       ELAPSED WALLCLOCK TIME (SEC) =            0

               CONVERGENCE CHECKS FOR EQUILIBRIUM ITERATION     1


 AVERAGE FORCE                      0.432       TIME AVG. FORCE       9.689E-02
 LARGEST SCALED RESIDUAL FORCE     -4.150E-06   AT NODE          4   DOF  1
  CORRESPONDING RESIDUAL FORCE     -4.150E-06
 LARGEST INCREMENT OF DISP.         1.009E-03   AT NODE          1   DOF  2
 LARGEST CORRECTION TO DISP.        1.485E-05   AT NODE          1   DOF  1
 ESTIMATE OF DISP.    CORRECTION   -2.708E-09
 FORCE     EQUILIB. ACCEPTED BASED ON SMALL RESIDUAL AND ESTIMATED CORRECTION

 ITERATION SUMMARY FOR THE INCREMENT:   1 TOTAL ITERATIONS, OF WHICH
   0 ARE SEVERE DISCONTINUITY ITERATIONS AND  1 ARE EQUILIBRIUM ITERATIONS.

 TIME INCREMENT COMPLETED   3.01    ,  FRACTION OF STEP COMPLETED  6.244E-02
 STEP TIME COMPLETED        18.8    ,  TOTAL TIME COMPLETED         18.8    


  INCREMENT    29 STARTS. ATTEMPT NUMBER  1, TIME INCREMENT   3.01    
 
	SYMMETRIC DIRECT SPARSE SOLVER RUNNING ON
 	1 HOST:        1 MPI RANK  x 1 THREAD
 	NUMBER OF EQUATIONS:     18
 	NUMBER OF RHS:           1
 	NUMBER OF FLOPS:         2.109e+03

     CHECK POINT  START OF SOLVER     

     CHECK POINT  END OF SOLVER       

       ELAPSED USER TIME (SEC)      =   0.0000    
       ELAPSED SYSTEM TIME (SEC)    =   0.0000    
       ELAPSED TOTAL CPU TIME (SEC) =   0.0000    
       ELAPSED WALLCLOCK TIME (SEC) =            0

               CONVERGENCE CHECKS FOR EQUILIBRIUM ITERATION     1


 AVERAGE FORCE                      0.467       TIME AVG. FORCE       0.110    
 LARGEST SCALED RESIDUAL FORCE     -2.602E-06   AT NODE          3   DOF  1
  CORRESPONDING RESIDUAL FORCE     -2.602E-06
 LARGEST INCREMENT OF DISP.         1.009E-03   AT NODE          1   DOF  2
 LARGEST CORRECTION TO DISP.        1.351E-05   AT NODE          1   DOF  1
 ESTIMATE OF DISP.    CORRECTION   -1.566E-09
 FORCE     EQUILIB. ACCEPTED BASED ON SMALL RESIDUAL AND ESTIMATED CORRECTION

 ITERATION SUMMARY FOR THE INCREMENT:   1 TOTAL ITERATIONS, OF WHICH
   0 ARE SEVERE DISCONTINUITY ITERATIONS AND  1 ARE EQUILIBRIUM ITERATIONS.

 TIME INCREMENT COMPLETED   3.01    ,  FRACTION OF STEP COMPLETED  7.244E-02
 STEP TIME COMPLETED        21.8    ,  TOTAL TIME COMPLETED         21.8    


  INCREMENT    30 STARTS. ATTEMPT NUMBER  1, TIME INCREMENT   3.01    
 
	SYMMETRIC DIRECT SPARSE SOLVER RUNNING ON
 	1 HOST:        1 MPI RANK  x 1 THREAD
 	NUMBER OF EQUATIONS:     18
 	NUMBER OF RHS:           1
 	NUMBER OF FLOPS:         2.109e+03

     CHECK POINT  START OF SOLVER     

     CHECK POINT  END OF SOLVER       

       ELAPSED USER TIME (SEC)      =   0.0000    
       ELAPSED SYSTEM TIME (SEC)    =   0.0000    
       ELAPSED TOTAL CPU TIME (SEC) =   0.0000    
       ELAPSED WALLCLOCK TIME (SEC) =            0

               CONVERGENCE CHECKS FOR EQUILIBRIUM ITERATION     1


 AVERAGE FORCE                      0.534       TIME AVG. FORCE       0.124    
 LARGEST SCALED RESIDUAL FORCE     -2.867E-06   AT NODE          3   DOF  1
  CORRESPONDING RESIDUAL FORCE     -2.867E-06
 LARGEST INCREMENT OF DISP.         1.009E-03   AT NODE          1   DOF  2
 LARGEST CORRECTION TO DISP.        1.244E-05   AT NODE          1   DOF  1
 ESTIMATE OF DISP.    CORRECTION   -1.602E-09
 FORCE     EQUILIB. ACCEPTED BASED ON SMALL RESIDUAL AND ESTIMATED CORRECTION

 ITERATION SUMMARY FOR THE INCREMENT:   1 TOTAL ITERATIONS, OF WHICH
   0 ARE SEVERE DISCONTINUITY ITERATIONS AND  1 ARE EQUILIBRIUM ITERATIONS.

 TIME INCREMENT COMPLETED   3.01    ,  FRACTION OF STEP COMPLETED  8.244E-02
 STEP TIME COMPLETED        24.8    ,  TOTAL TIME COMPLETED         24.8    


  INCREMENT    31 STARTS. ATTEMPT NUMBER  1, TIME INCREMENT   3.01    
 
	SYMMETRIC DIRECT SPARSE SOLVER RUNNING ON
 	1 HOST:        1 MPI RANK  x 1 THREAD
 	NUMBER OF EQUATIONS:     18
 	NUMBER OF RHS:           1
 	NUMBER OF FLOPS:         2.109e+03

     CHECK POINT  START OF SOLVER     

     CHECK POINT  END OF SOLVER       

       ELAPSED USER TIME (SEC)      =   0.0000    
       ELAPSED SYSTEM TIME (SEC)    =   0.0000    
       ELAPSED TOTAL CPU TIME (SEC) =   0.0000    
       ELAPSED WALLCLOCK TIME (SEC) =            0

               CONVERGENCE CHECKS FOR EQUILIBRIUM ITERATION     1


 AVERAGE FORCE                      0.545       TIME AVG. FORCE       0.137    
 LARGEST SCALED RESIDUAL FORCE     -3.130E-06   AT NODE          3   DOF  1
  CORRESPONDING RESIDUAL FORCE     -3.130E-06
 LARGEST INCREMENT OF DISP.         1.009E-03   AT NODE          1   DOF  2
 LARGEST CORRECTION TO DISP.        1.156E-05   AT NODE          1   DOF  1
 ESTIMATE OF DISP.    CORRECTION   -1.641E-09
 FORCE     EQUILIB. ACCEPTED BASED ON SMALL RESIDUAL AND ESTIMATED CORRECTION

 ITERATION SUMMARY FOR THE INCREMENT:   1 TOTAL ITERATIONS, OF WHICH
   0 ARE SEVERE DISCONTINUITY ITERATIONS AND  1 ARE EQUILIBRIUM ITERATIONS.

 TIME INCREMENT COMPLETED   3.01    ,  FRACTION OF STEP COMPLETED  9.244E-02
 STEP TIME COMPLETED        27.8    ,  TOTAL TIME COMPLETED         27.8    


  INCREMENT    32 STARTS. ATTEMPT NUMBER  1, TIME INCREMENT   3.01    
 
	SYMMETRIC DIRECT SPARSE SOLVER RUNNING ON
 	1 HOST:        1 MPI RANK  x 1 THREAD
 	NUMBER OF EQUATIONS:     18
 	NUMBER OF RHS:           1
 	NUMBER OF FLOPS:         2.109e+03

     CHECK POINT  START OF SOLVER     

     CHECK POINT  END OF SOLVER       

       ELAPSED USER TIME (SEC)      =   0.0000    
       ELAPSED SYSTEM TIME (SEC)    =   0.0000    
       ELAPSED TOTAL CPU TIME (SEC) =   0.0000    
       ELAPSED WALLCLOCK TIME (SEC) =            0

               CONVERGENCE CHECKS FOR EQUILIBRIUM ITERATION     1


 AVERAGE FORCE                      0.554       TIME AVG. FORCE       0.150    
 LARGEST SCALED RESIDUAL FORCE     -3.383E-06   AT NODE          3   DOF  1
  CORRESPONDING RESIDUAL FORCE     -3.383E-06
 LARGEST INCREMENT OF DISP.         1.009E-03   AT NODE          1   DOF  2
 LARGEST CORRECTION TO DISP.        1.082E-05   AT NODE          1   DOF  1
 ESTIMATE OF DISP.    CORRECTION   -1.678E-09
 FORCE     EQUILIB. ACCEPTED BASED ON SMALL RESIDUAL AND ESTIMATED CORRECTION

 ITERATION SUMMARY FOR THE INCREMENT:   1 TOTAL ITERATIONS, OF WHICH
   0 ARE SEVERE DISCONTINUITY ITERATIONS AND  1 ARE EQUILIBRIUM ITERATIONS.

 TIME INCREMENT COMPLETED   3.01    ,  FRACTION OF STEP COMPLETED  0.102    
 STEP TIME COMPLETED        30.8    ,  TOTAL TIME COMPLETED         30.8    


  INCREMENT    33 STARTS. ATTEMPT NUMBER  1, TIME INCREMENT   3.01    
 
	SYMMETRIC DIRECT SPARSE SOLVER RUNNING ON
 	1 HOST:        1 MPI RANK  x 1 THREAD
 	NUMBER OF EQUATIONS:     18
 	NUMBER OF RHS:           1
 	NUMBER OF FLOPS:         2.109e+03

     CHECK POINT  START OF SOLVER     

     CHECK POINT  END OF SOLVER       

       ELAPSED USER TIME (SEC)      =   0.0000    
       ELAPSED SYSTEM TIME (SEC)    =   0.0000    
       ELAPSED TOTAL CPU TIME (SEC) =   0.0000    
       ELAPSED WALLCLOCK TIME (SEC) =            0

               CONVERGENCE CHECKS FOR EQUILIBRIUM ITERATION     1


 AVERAGE FORCE                      0.562       TIME AVG. FORCE       0.163    
 LARGEST SCALED RESIDUAL FORCE     -3.621E-06   AT NODE          3   DOF  1
  CORRESPONDING RESIDUAL FORCE     -3.621E-06
 LARGEST INCREMENT OF DISP.         1.009E-03   AT NODE          1   DOF  2
 LARGEST CORRECTION TO DISP.        1.019E-05   AT NODE          1   DOF  1
 ESTIMATE OF DISP.    CORRECTION   -1.710E-09
 FORCE     EQUILIB. ACCEPTED BASED ON SMALL RESIDUAL AND ESTIMATED CORRECTION

 ITERATION SUMMARY FOR THE INCREMENT:   1 TOTAL ITERATIONS, OF WHICH
   0 ARE SEVERE DISCONTINUITY ITERATIONS AND  1 ARE EQUILIBRIUM ITERATIONS.

 TIME INCREMENT COMPLETED   3.01    ,  FRACTION OF STEP COMPLETED  0.112    
 STEP TIME COMPLETED        33.9    ,  TOTAL TIME COMPLETED         33.9    


  INCREMENT    34 STARTS. ATTEMPT NUMBER  1, TIME INCREMENT   3.01    
 
	SYMMETRIC DIRECT SPARSE SOLVER RUNNING ON
 	1 HOST:        1 MPI RANK  x 1 THREAD
 	NUMBER OF EQUATIONS:     18
 	NUMBER OF RHS:           1
 	NUMBER OF FLOPS:         2.109e+03

     CHECK POINT  START OF SOLVER     

     CHECK POINT  END OF SOLVER       

       ELAPSED USER TIME (SEC)      =   0.0000    
       ELAPSED SYSTEM TIME (SEC)    =   0.0000    
       ELAPSED TOTAL CPU TIME (SEC) =   0.0000    
       ELAPSED WALLCLOCK TIME (SEC) =            0

               CONVERGENCE CHECKS FOR EQUILIBRIUM ITERATION     1


 AVERAGE FORCE                      0.570       TIME AVG. FORCE       0.175    
 LARGEST SCALED RESIDUAL FORCE     -3.842E-06   AT NODE          3   DOF  1
  CORRESPONDING RESIDUAL FORCE     -3.842E-06
 LARGEST INCREMENT OF DISP.         1.009E-03   AT NODE          1   DOF  2
 LARGEST CORRECTION TO DISP.        9.640E-06   AT NODE          1   DOF  1
          THE FORCE     EQUILIBRIUM EQUATIONS HAVE CONVERGED

 ITERATION SUMMARY FOR THE INCREMENT:   1 TOTAL ITERATIONS, OF WHICH
   0 ARE SEVERE DISCONTINUITY ITERATIONS AND  1 ARE EQUILIBRIUM ITERATIONS.

 TIME INCREMENT COMPLETED   3.01    ,  FRACTION OF STEP COMPLETED  0.122    
 STEP TIME COMPLETED        36.9    ,  TOTAL TIME COMPLETED         36.9    


  INCREMENT    35 STARTS. ATTEMPT NUMBER  1, TIME INCREMENT   3.01    
 
	SYMMETRIC DIRECT SPARSE SOLVER RUNNING ON
 	1 HOST:        1 MPI RANK  x 1 THREAD
 	NUMBER OF EQUATIONS:     18
 	NUMBER OF RHS:           1
 	NUMBER OF FLOPS:         2.109e+03

     CHECK POINT  START OF SOLVER     

     CHECK POINT  END OF SOLVER       

       ELAPSED USER TIME (SEC)      =   0.0000    
       ELAPSED SYSTEM TIME (SEC)    =   0.0000    
       ELAPSED TOTAL CPU TIME (SEC) =   0.0000    
       ELAPSED WALLCLOCK TIME (SEC) =            0

               CONVERGENCE CHECKS FOR EQUILIBRIUM ITERATION     1


 AVERAGE FORCE                      0.576       TIME AVG. FORCE       0.186    
 LARGEST SCALED RESIDUAL FORCE     -4.044E-06   AT NODE          3   DOF  1
  CORRESPONDING RESIDUAL FORCE     -4.044E-06
 LARGEST INCREMENT OF DISP.         1.009E-03   AT NODE          1   DOF  2
 LARGEST CORRECTION TO DISP.        9.160E-06   AT NODE          3   DOF  1
          THE FORCE     EQUILIBRIUM EQUATIONS HAVE CONVERGED

 ITERATION SUMMARY FOR THE INCREMENT:   1 TOTAL ITERATIONS, OF WHICH
   0 ARE SEVERE DISCONTINUITY ITERATIONS AND  1 ARE EQUILIBRIUM ITERATIONS.

 TIME INCREMENT COMPLETED   3.01    ,  FRACTION OF STEP COMPLETED  0.132    
 STEP TIME COMPLETED        39.9    ,  TOTAL TIME COMPLETED         39.9    


  INCREMENT    36 STARTS. ATTEMPT NUMBER  1, TIME INCREMENT   3.01    
 
	SYMMETRIC DIRECT SPARSE SOLVER RUNNING ON
 	1 HOST:        1 MPI RANK  x 1 THREAD
 	NUMBER OF EQUATIONS:     18
 	NUMBER OF RHS:           1
 	NUMBER OF FLOPS:         2.109e+03

     CHECK POINT  START OF SOLVER     

     CHECK POINT  END OF SOLVER       

       ELAPSED USER TIME (SEC)      =   0.0000    
       ELAPSED SYSTEM TIME (SEC)    =   0.0000    
       ELAPSED TOTAL CPU TIME (SEC) =   0.0000    
       ELAPSED WALLCLOCK TIME (SEC) =            0

               CONVERGENCE CHECKS FOR EQUILIBRIUM ITERATION     1


 AVERAGE FORCE                      0.582       TIME AVG. FORCE       0.197    
 LARGEST SCALED RESIDUAL FORCE     -4.229E-06   AT NODE          3   DOF  1
  CORRESPONDING RESIDUAL FORCE     -4.229E-06
 LARGEST INCREMENT OF DISP.         1.009E-03   AT NODE          1   DOF  2
 LARGEST CORRECTION TO DISP.        8.738E-06   AT NODE          3   DOF  1
          THE FORCE     EQUILIBRIUM EQUATIONS HAVE CONVERGED

 ITERATION SUMMARY FOR THE INCREMENT:   1 TOTAL ITERATIONS, OF WHICH
   0 ARE SEVERE DISCONTINUITY ITERATIONS AND  1 ARE EQUILIBRIUM ITERATIONS.

 TIME INCREMENT COMPLETED   3.01    ,  FRACTION OF STEP COMPLETED  0.142    
 STEP TIME COMPLETED        42.9    ,  TOTAL TIME COMPLETED         42.9    


  INCREMENT    37 STARTS. ATTEMPT NUMBER  1, TIME INCREMENT   3.01    
 
	SYMMETRIC DIRECT SPARSE SOLVER RUNNING ON
 	1 HOST:        1 MPI RANK  x 1 THREAD
 	NUMBER OF EQUATIONS:     18
 	NUMBER OF RHS:           1
 	NUMBER OF FLOPS:         2.109e+03

     CHECK POINT  START OF SOLVER     

     CHECK POINT  END OF SOLVER       

       ELAPSED USER TIME (SEC)      =   0.0000    
       ELAPSED SYSTEM TIME (SEC)    =   0.0000    
       ELAPSED TOTAL CPU TIME (SEC) =   0.0000    
       ELAPSED WALLCLOCK TIME (SEC) =            0

               CONVERGENCE CHECKS FOR EQUILIBRIUM ITERATION     1


 AVERAGE FORCE                      0.587       TIME AVG. FORCE       0.208    
 LARGEST SCALED RESIDUAL FORCE      4.517E-06   AT NODE          2   DOF  1
  CORRESPONDING RESIDUAL FORCE      4.517E-06
 LARGEST INCREMENT OF DISP.         1.009E-03   AT NODE          1   DOF  2
 LARGEST CORRECTION TO DISP.        8.357E-06   AT NODE          3   DOF  1
          THE FORCE     EQUILIBRIUM EQUATIONS HAVE CONVERGED

 ITERATION SUMMARY FOR THE INCREMENT:   1 TOTAL ITERATIONS, OF WHICH
   0 ARE SEVERE DISCONTINUITY ITERATIONS AND  1 ARE EQUILIBRIUM ITERATIONS.

 TIME INCREMENT COMPLETED   3.01    ,  FRACTION OF STEP COMPLETED  0.152    
 STEP TIME COMPLETED        45.9    ,  TOTAL TIME COMPLETED         45.9    


  INCREMENT    38 STARTS. ATTEMPT NUMBER  1, TIME INCREMENT   3.01    
 
	SYMMETRIC DIRECT SPARSE SOLVER RUNNING ON
 	1 HOST:        1 MPI RANK  x 1 THREAD
 	NUMBER OF EQUATIONS:     18
 	NUMBER OF RHS:           1
 	NUMBER OF FLOPS:         2.109e+03

     CHECK POINT  START OF SOLVER     

     CHECK POINT  END OF SOLVER       

       ELAPSED USER TIME (SEC)      =   0.0000    
       ELAPSED SYSTEM TIME (SEC)    =   0.0000    
       ELAPSED TOTAL CPU TIME (SEC) =   0.0000    
       ELAPSED WALLCLOCK TIME (SEC) =            0

               CONVERGENCE CHECKS FOR EQUILIBRIUM ITERATION     1


 AVERAGE FORCE                      0.592       TIME AVG. FORCE       0.218    
 LARGEST SCALED RESIDUAL FORCE      4.873E-06   AT NODE          2   DOF  1
  CORRESPONDING RESIDUAL FORCE      4.873E-06
 LARGEST INCREMENT OF DISP.         1.009E-03   AT NODE          1   DOF  2
 LARGEST CORRECTION TO DISP.        8.011E-06   AT NODE          3   DOF  1
          THE FORCE     EQUILIBRIUM EQUATIONS HAVE CONVERGED

 ITERATION SUMMARY FOR THE INCREMENT:   1 TOTAL ITERATIONS, OF WHICH
   0 ARE SEVERE DISCONTINUITY ITERATIONS AND  1 ARE EQUILIBRIUM ITERATIONS.

 TIME INCREMENT COMPLETED   3.01    ,  FRACTION OF STEP COMPLETED  0.162    
 STEP TIME COMPLETED        48.9    ,  TOTAL TIME COMPLETED         48.9    


  INCREMENT    39 STARTS. ATTEMPT NUMBER  1, TIME INCREMENT   3.01    
 
	SYMMETRIC DIRECT SPARSE SOLVER RUNNING ON
 	1 HOST:        1 MPI RANK  x 1 THREAD
 	NUMBER OF EQUATIONS:     18
 	NUMBER OF RHS:           1
 	NUMBER OF FLOPS:         2.109e+03

     CHECK POINT  START OF SOLVER     

     CHECK POINT  END OF SOLVER       

       ELAPSED USER TIME (SEC)      =   0.0000    
       ELAPSED SYSTEM TIME (SEC)    =   0.0000    
       ELAPSED TOTAL CPU TIME (SEC) =   0.0000    
       ELAPSED WALLCLOCK TIME (SEC) =            0

               CONVERGENCE CHECKS FOR EQUILIBRIUM ITERATION     1


 AVERAGE FORCE                      0.596       TIME AVG. FORCE       0.228    
 LARGEST SCALED RESIDUAL FORCE      5.179E-06   AT NODE          2   DOF  1
  CORRESPONDING RESIDUAL FORCE      5.179E-06
 LARGEST INCREMENT OF DISP.         1.009E-03   AT NODE          1   DOF  2
 LARGEST CORRECTION TO DISP.        7.693E-06   AT NODE          3   DOF  1
          THE FORCE     EQUILIBRIUM EQUATIONS HAVE CONVERGED

 ITERATION SUMMARY FOR THE INCREMENT:   1 TOTAL ITERATIONS, OF WHICH
   0 ARE SEVERE DISCONTINUITY ITERATIONS AND  1 ARE EQUILIBRIUM ITERATIONS.

 TIME INCREMENT COMPLETED   3.01    ,  FRACTION OF STEP COMPLETED  0.172    
 STEP TIME COMPLETED        51.9    ,  TOTAL TIME COMPLETED         51.9    


  INCREMENT    40 STARTS. ATTEMPT NUMBER  1, TIME INCREMENT   3.01    
 
	SYMMETRIC DIRECT SPARSE SOLVER RUNNING ON
 	1 HOST:        1 MPI RANK  x 1 THREAD
 	NUMBER OF EQUATIONS:     18
 	NUMBER OF RHS:           1
 	NUMBER OF FLOPS:         2.109e+03

     CHECK POINT  START OF SOLVER     

     CHECK POINT  END OF SOLVER       

       ELAPSED USER TIME (SEC)      =   0.0000    
       ELAPSED SYSTEM TIME (SEC)    =   0.0000    
       ELAPSED TOTAL CPU TIME (SEC) =   0.0000    
       ELAPSED WALLCLOCK TIME (SEC) =            0

               CONVERGENCE CHECKS FOR EQUILIBRIUM ITERATION     1


 AVERAGE FORCE                      0.599       TIME AVG. FORCE       0.237    
 LARGEST SCALED RESIDUAL FORCE      5.441E-06   AT NODE          2   DOF  1
  CORRESPONDING RESIDUAL FORCE      5.441E-06
 LARGEST INCREMENT OF DISP.         1.009E-03   AT NODE          1   DOF  2
 LARGEST CORRECTION TO DISP.        7.399E-06   AT NODE          3   DOF  1
          THE FORCE     EQUILIBRIUM EQUATIONS HAVE CONVERGED

 ITERATION SUMMARY FOR THE INCREMENT:   1 TOTAL ITERATIONS, OF WHICH
   0 ARE SEVERE DISCONTINUITY ITERATIONS AND  1 ARE EQUILIBRIUM ITERATIONS.

 TIME INCREMENT COMPLETED   3.01    ,  FRACTION OF STEP COMPLETED  0.182    
 STEP TIME COMPLETED        54.9    ,  TOTAL TIME COMPLETED         54.9    


  INCREMENT    41 STARTS. ATTEMPT NUMBER  1, TIME INCREMENT   3.01    
 
	SYMMETRIC DIRECT SPARSE SOLVER RUNNING ON
 	1 HOST:        1 MPI RANK  x 1 THREAD
 	NUMBER OF EQUATIONS:     18
 	NUMBER OF RHS:           1
 	NUMBER OF FLOPS:         2.109e+03

     CHECK POINT  START OF SOLVER     

     CHECK POINT  END OF SOLVER       

       ELAPSED USER TIME (SEC)      =   0.0000    
       ELAPSED SYSTEM TIME (SEC)    =   0.0000    
       ELAPSED TOTAL CPU TIME (SEC) =   0.0000    
       ELAPSED WALLCLOCK TIME (SEC) =            0

               CONVERGENCE CHECKS FOR EQUILIBRIUM ITERATION     1


 AVERAGE FORCE                      0.602       TIME AVG. FORCE       0.246    
 LARGEST SCALED RESIDUAL FORCE      5.665E-06   AT NODE          2   DOF  1
  CORRESPONDING RESIDUAL FORCE      5.665E-06
 LARGEST INCREMENT OF DISP.         1.009E-03   AT NODE          1   DOF  2
 LARGEST CORRECTION TO DISP.        7.127E-06   AT NODE          3   DOF  1
          THE FORCE     EQUILIBRIUM EQUATIONS HAVE CONVERGED

 ITERATION SUMMARY FOR THE INCREMENT:   1 TOTAL ITERATIONS, OF WHICH
   0 ARE SEVERE DISCONTINUITY ITERATIONS AND  1 ARE EQUILIBRIUM ITERATIONS.

 TIME INCREMENT COMPLETED   3.01    ,  FRACTION OF STEP COMPLETED  0.192    
 STEP TIME COMPLETED        57.9    ,  TOTAL TIME COMPLETED         57.9    


  INCREMENT    42 STARTS. ATTEMPT NUMBER  1, TIME INCREMENT   3.01    
 
	SYMMETRIC DIRECT SPARSE SOLVER RUNNING ON
 	1 HOST:        1 MPI RANK  x 1 THREAD
 	NUMBER OF EQUATIONS:     18
 	NUMBER OF RHS:           1
 	NUMBER OF FLOPS:         2.109e+03

     CHECK POINT  START OF SOLVER     

     CHECK POINT  END OF SOLVER       

       ELAPSED USER TIME (SEC)      =   0.0000    
       ELAPSED SYSTEM TIME (SEC)    =   0.0000    
       ELAPSED TOTAL CPU TIME (SEC) =   0.0000    
       ELAPSED WALLCLOCK TIME (SEC) =            0

               CONVERGENCE CHECKS FOR EQUILIBRIUM ITERATION     1


 AVERAGE FORCE                      0.605       TIME AVG. FORCE       0.254    
 LARGEST SCALED RESIDUAL FORCE      5.857E-06   AT NODE          2   DOF  1
  CORRESPONDING RESIDUAL FORCE      5.857E-06
 LARGEST INCREMENT OF DISP.         1.009E-03   AT NODE          1   DOF  2
 LARGEST CORRECTION TO DISP.        6.874E-06   AT NODE          3   DOF  1
          THE FORCE     EQUILIBRIUM EQUATIONS HAVE CONVERGED

 ITERATION SUMMARY FOR THE INCREMENT:   1 TOTAL ITERATIONS, OF WHICH
   0 ARE SEVERE DISCONTINUITY ITERATIONS AND  1 ARE EQUILIBRIUM ITERATIONS.

 TIME INCREMENT COMPLETED   3.01    ,  FRACTION OF STEP COMPLETED  0.202    
 STEP TIME COMPLETED        61.0    ,  TOTAL TIME COMPLETED         61.0    


  INCREMENT    43 STARTS. ATTEMPT NUMBER  1, TIME INCREMENT   3.01    
 
	SYMMETRIC DIRECT SPARSE SOLVER RUNNING ON
 	1 HOST:        1 MPI RANK  x 1 THREAD
 	NUMBER OF EQUATIONS:     18
 	NUMBER OF RHS:           1
 	NUMBER OF FLOPS:         2.109e+03

     CHECK POINT  START OF SOLVER     

     CHECK POINT  END OF SOLVER       

       ELAPSED USER TIME (SEC)      =   0.0000    
       ELAPSED SYSTEM TIME (SEC)    =   0.0000    
       ELAPSED TOTAL CPU TIME (SEC) =   0.0000    
       ELAPSED WALLCLOCK TIME (SEC) =            0

               CONVERGENCE CHECKS FOR EQUILIBRIUM ITERATION     1


 AVERAGE FORCE                      0.608       TIME AVG. FORCE       0.263    
 LARGEST SCALED RESIDUAL FORCE      6.020E-06   AT NODE          2   DOF  1
  CORRESPONDING RESIDUAL FORCE      6.020E-06
 LARGEST INCREMENT OF DISP.         1.009E-03   AT NODE          1   DOF  2
 LARGEST CORRECTION TO DISP.        6.637E-06   AT NODE          3   DOF  1
          THE FORCE     EQUILIBRIUM EQUATIONS HAVE CONVERGED

 ITERATION SUMMARY FOR THE INCREMENT:   1 TOTAL ITERATIONS, OF WHICH
   0 ARE SEVERE DISCONTINUITY ITERATIONS AND  1 ARE EQUILIBRIUM ITERATIONS.

 TIME INCREMENT COMPLETED   3.01    ,  FRACTION OF STEP COMPLETED  0.212    
 STEP TIME COMPLETED        64.0    ,  TOTAL TIME COMPLETED         64.0    


  INCREMENT    44 STARTS. ATTEMPT NUMBER  1, TIME INCREMENT   3.01    
 
	SYMMETRIC DIRECT SPARSE SOLVER RUNNING ON
 	1 HOST:        1 MPI RANK  x 1 THREAD
 	NUMBER OF EQUATIONS:     18
 	NUMBER OF RHS:           1
 	NUMBER OF FLOPS:         2.109e+03

     CHECK POINT  START OF SOLVER     

     CHECK POINT  END OF SOLVER       

       ELAPSED USER TIME (SEC)      =   0.0000    
       ELAPSED SYSTEM TIME (SEC)    =   0.0000    
       ELAPSED TOTAL CPU TIME (SEC) =   0.0000    
       ELAPSED WALLCLOCK TIME (SEC) =            0

               CONVERGENCE CHECKS FOR EQUILIBRIUM ITERATION     1


 AVERAGE FORCE                      0.610       TIME AVG. FORCE       0.271    
 LARGEST SCALED RESIDUAL FORCE      6.157E-06   AT NODE          2   DOF  1
  CORRESPONDING RESIDUAL FORCE      6.157E-06
 LARGEST INCREMENT OF DISP.         1.009E-03   AT NODE          1   DOF  2
 LARGEST CORRECTION TO DISP.        6.414E-06   AT NODE          3   DOF  1
          THE FORCE     EQUILIBRIUM EQUATIONS HAVE CONVERGED

 ITERATION SUMMARY FOR THE INCREMENT:   1 TOTAL ITERATIONS, OF WHICH
   0 ARE SEVERE DISCONTINUITY ITERATIONS AND  1 ARE EQUILIBRIUM ITERATIONS.

 TIME INCREMENT COMPLETED   3.01    ,  FRACTION OF STEP COMPLETED  0.222    
 STEP TIME COMPLETED        67.0    ,  TOTAL TIME COMPLETED         67.0    


  INCREMENT    45 STARTS. ATTEMPT NUMBER  1, TIME INCREMENT   3.01    
 
	SYMMETRIC DIRECT SPARSE SOLVER RUNNING ON
 	1 HOST:        1 MPI RANK  x 1 THREAD
 	NUMBER OF EQUATIONS:     18
 	NUMBER OF RHS:           1
 	NUMBER OF FLOPS:         2.109e+03

     CHECK POINT  START OF SOLVER     

     CHECK POINT  END OF SOLVER       

       ELAPSED USER TIME (SEC)      =   0.0000    
       ELAPSED SYSTEM TIME (SEC)    =   0.0000    
       ELAPSED TOTAL CPU TIME (SEC) =   0.0000    
       ELAPSED WALLCLOCK TIME (SEC) =            0

               CONVERGENCE CHECKS FOR EQUILIBRIUM ITERATION     1


 AVERAGE FORCE                      0.612       TIME AVG. FORCE       0.278    
 LARGEST SCALED RESIDUAL FORCE      6.273E-06   AT NODE          2   DOF  1
  CORRESPONDING RESIDUAL FORCE      6.273E-06
 LARGEST INCREMENT OF DISP.         1.009E-03   AT NODE          1   DOF  2
 LARGEST CORRECTION TO DISP.        6.205E-06   AT NODE          3   DOF  1
          THE FORCE     EQUILIBRIUM EQUATIONS HAVE CONVERGED

 ITERATION SUMMARY FOR THE INCREMENT:   1 TOTAL ITERATIONS, OF WHICH
   0 ARE SEVERE DISCONTINUITY ITERATIONS AND  1 ARE EQUILIBRIUM ITERATIONS.

 TIME INCREMENT COMPLETED   3.01    ,  FRACTION OF STEP COMPLETED  0.232    
 STEP TIME COMPLETED        70.0    ,  TOTAL TIME COMPLETED         70.0    


  INCREMENT    46 STARTS. ATTEMPT NUMBER  1, TIME INCREMENT   3.01    
 
	SYMMETRIC DIRECT SPARSE SOLVER RUNNING ON
 	1 HOST:        1 MPI RANK  x 1 THREAD
 	NUMBER OF EQUATIONS:     18
 	NUMBER OF RHS:           1
 	NUMBER OF FLOPS:         2.109e+03

     CHECK POINT  START OF SOLVER     

     CHECK POINT  END OF SOLVER       

       ELAPSED USER TIME (SEC)      =   0.0000    
       ELAPSED SYSTEM TIME (SEC)    =   0.0000    
       ELAPSED TOTAL CPU TIME (SEC) =   0.0000    
       ELAPSED WALLCLOCK TIME (SEC) =            0

               CONVERGENCE CHECKS FOR EQUILIBRIUM ITERATION     1


 AVERAGE FORCE                      0.613       TIME AVG. FORCE       0.285    
 LARGEST SCALED RESIDUAL FORCE      6.369E-06   AT NODE          2   DOF  1
  CORRESPONDING RESIDUAL FORCE      6.369E-06
 LARGEST INCREMENT OF DISP.         1.009E-03   AT NODE          1   DOF  2
 LARGEST CORRECTION TO DISP.        6.008E-06   AT NODE          3   DOF  1
          THE FORCE     EQUILIBRIUM EQUATIONS HAVE CONVERGED

 ITERATION SUMMARY FOR THE INCREMENT:   1 TOTAL ITERATIONS, OF WHICH
   0 ARE SEVERE DISCONTINUITY ITERATIONS AND  1 ARE EQUILIBRIUM ITERATIONS.

 TIME INCREMENT COMPLETED   3.01    ,  FRACTION OF STEP COMPLETED  0.242    
 STEP TIME COMPLETED        73.0    ,  TOTAL TIME COMPLETED         73.0    


  INCREMENT    47 STARTS. ATTEMPT NUMBER  1, TIME INCREMENT   3.01    
 
	SYMMETRIC DIRECT SPARSE SOLVER RUNNING ON
 	1 HOST:        1 MPI RANK  x 1 THREAD
 	NUMBER OF EQUATIONS:     18
 	NUMBER OF RHS:           1
 	NUMBER OF FLOPS:         2.109e+03

     CHECK POINT  START OF SOLVER     

     CHECK POINT  END OF SOLVER       

       ELAPSED USER TIME (SEC)      =   0.0000    
       ELAPSED SYSTEM TIME (SEC)    =   0.0000    
       ELAPSED TOTAL CPU TIME (SEC) =   0.0000    
       ELAPSED WALLCLOCK TIME (SEC) =            0

               CONVERGENCE CHECKS FOR EQUILIBRIUM ITERATION     1


 AVERAGE FORCE                      0.614       TIME AVG. FORCE       0.292    
 LARGEST SCALED RESIDUAL FORCE      6.448E-06   AT NODE          2   DOF  1
  CORRESPONDING RESIDUAL FORCE      6.448E-06
 LARGEST INCREMENT OF DISP.         1.009E-03   AT NODE          1   DOF  2
 LARGEST CORRECTION TO DISP.        5.846E-06   AT NODE          2   DOF  3
          THE FORCE     EQUILIBRIUM EQUATIONS HAVE CONVERGED

 ITERATION SUMMARY FOR THE INCREMENT:   1 TOTAL ITERATIONS, OF WHICH
   0 ARE SEVERE DISCONTINUITY ITERATIONS AND  1 ARE EQUILIBRIUM ITERATIONS.

 TIME INCREMENT COMPLETED   3.01    ,  FRACTION OF STEP COMPLETED  0.252    
 STEP TIME COMPLETED        76.0    ,  TOTAL TIME COMPLETED         76.0    


  INCREMENT    48 STARTS. ATTEMPT NUMBER  1, TIME INCREMENT   3.01    
 
	SYMMETRIC DIRECT SPARSE SOLVER RUNNING ON
 	1 HOST:        1 MPI RANK  x 1 THREAD
 	NUMBER OF EQUATIONS:     18
 	NUMBER OF RHS:           1
 	NUMBER OF FLOPS:         2.109e+03

     CHECK POINT  START OF SOLVER     

     CHECK POINT  END OF SOLVER       

       ELAPSED USER TIME (SEC)      =   0.0000    
       ELAPSED SYSTEM TIME (SEC)    =   0.0000    
       ELAPSED TOTAL CPU TIME (SEC) =   0.0000    
       ELAPSED WALLCLOCK TIME (SEC) =            0

               CONVERGENCE CHECKS FOR EQUILIBRIUM ITERATION     1


 AVERAGE FORCE                      0.654       TIME AVG. FORCE       0.300    
 LARGEST SCALED RESIDUAL FORCE      6.511E-06   AT NODE          2   DOF  1
  CORRESPONDING RESIDUAL FORCE      6.511E-06
 LARGEST INCREMENT OF DISP.         1.009E-03   AT NODE          1   DOF  2
 LARGEST CORRECTION TO DISP.        5.764E-06   AT NODE          2   DOF  3
          THE FORCE     EQUILIBRIUM EQUATIONS HAVE CONVERGED

 ITERATION SUMMARY FOR THE INCREMENT:   1 TOTAL ITERATIONS, OF WHICH
   0 ARE SEVERE DISCONTINUITY ITERATIONS AND  1 ARE EQUILIBRIUM ITERATIONS.

 TIME INCREMENT COMPLETED   3.01    ,  FRACTION OF STEP COMPLETED  0.262    
 STEP TIME COMPLETED        79.0    ,  TOTAL TIME COMPLETED         79.0    


  INCREMENT    49 STARTS. ATTEMPT NUMBER  1, TIME INCREMENT   3.01    
 
	SYMMETRIC DIRECT SPARSE SOLVER RUNNING ON
 	1 HOST:        1 MPI RANK  x 1 THREAD
 	NUMBER OF EQUATIONS:     18
 	NUMBER OF RHS:           1
 	NUMBER OF FLOPS:         2.109e+03

     CHECK POINT  START OF SOLVER     

     CHECK POINT  END OF SOLVER       

       ELAPSED USER TIME (SEC)      =   0.0000    
       ELAPSED SYSTEM TIME (SEC)    =   0.0000    
       ELAPSED TOTAL CPU TIME (SEC) =   0.0000    
       ELAPSED WALLCLOCK TIME (SEC) =            0

               CONVERGENCE CHECKS FOR EQUILIBRIUM ITERATION     1


 AVERAGE FORCE                      0.655       TIME AVG. FORCE       0.307    
 LARGEST SCALED RESIDUAL FORCE      6.560E-06   AT NODE          2   DOF  1
  CORRESPONDING RESIDUAL FORCE      6.560E-06
 LARGEST INCREMENT OF DISP.         1.009E-03   AT NODE          1   DOF  2
 LARGEST CORRECTION TO DISP.        5.681E-06   AT NODE          2   DOF  3
          THE FORCE     EQUILIBRIUM EQUATIONS HAVE CONVERGED

 ITERATION SUMMARY FOR THE INCREMENT:   1 TOTAL ITERATIONS, OF WHICH
   0 ARE SEVERE DISCONTINUITY ITERATIONS AND  1 ARE EQUILIBRIUM ITERATIONS.

 TIME INCREMENT COMPLETED   3.01    ,  FRACTION OF STEP COMPLETED  0.272    
 STEP TIME COMPLETED        82.0    ,  TOTAL TIME COMPLETED         82.0    


  INCREMENT    50 STARTS. ATTEMPT NUMBER  1, TIME INCREMENT   3.01    
 
	SYMMETRIC DIRECT SPARSE SOLVER RUNNING ON
 	1 HOST:        1 MPI RANK  x 1 THREAD
 	NUMBER OF EQUATIONS:     18
 	NUMBER OF RHS:           1
 	NUMBER OF FLOPS:         2.109e+03

     CHECK POINT  START OF SOLVER     

     CHECK POINT  END OF SOLVER       

       ELAPSED USER TIME (SEC)      =   0.0000    
       ELAPSED SYSTEM TIME (SEC)    =   0.0000    
       ELAPSED TOTAL CPU TIME (SEC) =   0.0000    
       ELAPSED WALLCLOCK TIME (SEC) =            0

               CONVERGENCE CHECKS FOR EQUILIBRIUM ITERATION     1


 AVERAGE FORCE                      0.656       TIME AVG. FORCE       0.314    
 LARGEST SCALED RESIDUAL FORCE      6.598E-06   AT NODE          2   DOF  1
  CORRESPONDING RESIDUAL FORCE      6.598E-06
 LARGEST INCREMENT OF DISP.         1.009E-03   AT NODE          1   DOF  2
 LARGEST CORRECTION TO DISP.        5.598E-06   AT NODE          2   DOF  3
          THE FORCE     EQUILIBRIUM EQUATIONS HAVE CONVERGED

 ITERATION SUMMARY FOR THE INCREMENT:   1 TOTAL ITERATIONS, OF WHICH
   0 ARE SEVERE DISCONTINUITY ITERATIONS AND  1 ARE EQUILIBRIUM ITERATIONS.

 TIME INCREMENT COMPLETED   3.01    ,  FRACTION OF STEP COMPLETED  0.282    
 STEP TIME COMPLETED        85.0    ,  TOTAL TIME COMPLETED         85.0    


  INCREMENT    51 STARTS. ATTEMPT NUMBER  1, TIME INCREMENT   3.01    
 
	SYMMETRIC DIRECT SPARSE SOLVER RUNNING ON
 	1 HOST:        1 MPI RANK  x 1 THREAD
 	NUMBER OF EQUATIONS:     18
 	NUMBER OF RHS:           1
 	NUMBER OF FLOPS:         2.109e+03

     CHECK POINT  START OF SOLVER     

     CHECK POINT  END OF SOLVER       

       ELAPSED USER TIME (SEC)      =   0.0000    
       ELAPSED SYSTEM TIME (SEC)    =   0.0000    
       ELAPSED TOTAL CPU TIME (SEC) =   0.0000    
       ELAPSED WALLCLOCK TIME (SEC) =            0

               CONVERGENCE CHECKS FOR EQUILIBRIUM ITERATION     1


 AVERAGE FORCE                      0.656       TIME AVG. FORCE       0.321    
 LARGEST SCALED RESIDUAL FORCE      6.624E-06   AT NODE          2   DOF  1
  CORRESPONDING RESIDUAL FORCE      6.624E-06
 LARGEST INCREMENT OF DISP.         1.009E-03   AT NODE          1   DOF  2
 LARGEST CORRECTION TO DISP.        5.515E-06   AT NODE          2   DOF  3
          THE FORCE     EQUILIBRIUM EQUATIONS HAVE CONVERGED

 ITERATION SUMMARY FOR THE INCREMENT:   1 TOTAL ITERATIONS, OF WHICH
   0 ARE SEVERE DISCONTINUITY ITERATIONS AND  1 ARE EQUILIBRIUM ITERATIONS.

 TIME INCREMENT COMPLETED   3.01    ,  FRACTION OF STEP COMPLETED  0.292    
 STEP TIME COMPLETED        88.1    ,  TOTAL TIME COMPLETED         88.1    


  INCREMENT    52 STARTS. ATTEMPT NUMBER  1, TIME INCREMENT   3.01    
 
	SYMMETRIC DIRECT SPARSE SOLVER RUNNING ON
 	1 HOST:        1 MPI RANK  x 1 THREAD
 	NUMBER OF EQUATIONS:     18
 	NUMBER OF RHS:           1
 	NUMBER OF FLOPS:         2.109e+03

     CHECK POINT  START OF SOLVER     

     CHECK POINT  END OF SOLVER       

       ELAPSED USER TIME (SEC)      =   0.0000    
       ELAPSED SYSTEM TIME (SEC)    =   0.0000    
       ELAPSED TOTAL CPU TIME (SEC) =   0.0000    
       ELAPSED WALLCLOCK TIME (SEC) =            0

               CONVERGENCE CHECKS FOR EQUILIBRIUM ITERATION     1


 AVERAGE FORCE                      0.657       TIME AVG. FORCE       0.327    
 LARGEST SCALED RESIDUAL FORCE      6.640E-06   AT NODE          2   DOF  1
  CORRESPONDING RESIDUAL FORCE      6.640E-06
 LARGEST INCREMENT OF DISP.         1.009E-03   AT NODE          1   DOF  2
 LARGEST CORRECTION TO DISP.        5.433E-06   AT NODE          2   DOF  3
          THE FORCE     EQUILIBRIUM EQUATIONS HAVE CONVERGED

 ITERATION SUMMARY FOR THE INCREMENT:   1 TOTAL ITERATIONS, OF WHICH
   0 ARE SEVERE DISCONTINUITY ITERATIONS AND  1 ARE EQUILIBRIUM ITERATIONS.

 TIME INCREMENT COMPLETED   3.01    ,  FRACTION OF STEP COMPLETED  0.302    
[...]

 TIME INCREMENT COMPLETED   3.01    ,  FRACTION OF STEP COMPLETED  0.862    
 STEP TIME COMPLETED        260.    ,  TOTAL TIME COMPLETED         260.    


  INCREMENT   109 STARTS. ATTEMPT NUMBER  1, TIME INCREMENT   3.01    
 
	SYMMETRIC DIRECT SPARSE SOLVER RUNNING ON
 	1 HOST:        1 MPI RANK  x 1 THREAD
 	NUMBER OF EQUATIONS:     18
 	NUMBER OF RHS:           1
 	NUMBER OF FLOPS:         2.109e+03

     CHECK POINT  START OF SOLVER     

     CHECK POINT  END OF SOLVER       

       ELAPSED USER TIME (SEC)      =   0.0000    
       ELAPSED SYSTEM TIME (SEC)    =   0.0000    
       ELAPSED TOTAL CPU TIME (SEC) =   0.0000    
       ELAPSED WALLCLOCK TIME (SEC) =            0

               CONVERGENCE CHECKS FOR EQUILIBRIUM ITERATION     1


 AVERAGE FORCE                      0.580       TIME AVG. FORCE       0.483    
 LARGEST SCALED RESIDUAL FORCE      3.928E-06   AT NODE          2   DOF  1
  CORRESPONDING RESIDUAL FORCE      3.928E-06
 LARGEST INCREMENT OF DISP.         1.009E-03   AT NODE          1   DOF  2
 LARGEST CORRECTION TO DISP.        2.109E-06   AT NODE          2   DOF  3
          THE FORCE     EQUILIBRIUM EQUATIONS HAVE CONVERGED

 ITERATION SUMMARY FOR THE INCREMENT:   1 TOTAL ITERATIONS, OF WHICH
   0 ARE SEVERE DISCONTINUITY ITERATIONS AND  1 ARE EQUILIBRIUM ITERATIONS.

 TIME INCREMENT COMPLETED   3.01    ,  FRACTION OF STEP COMPLETED  0.872    
 STEP TIME COMPLETED        263.    ,  TOTAL TIME COMPLETED         263.    


  INCREMENT   110 STARTS. ATTEMPT NUMBER  1, TIME INCREMENT   3.01    
 
	SYMMETRIC DIRECT SPARSE SOLVER RUNNING ON
 	1 HOST:        1 MPI RANK  x 1 THREAD
 	NUMBER OF EQUATIONS:     18
 	NUMBER OF RHS:           1
 	NUMBER OF FLOPS:         2.109e+03

     CHECK POINT  START OF SOLVER     

     CHECK POINT  END OF SOLVER       

       ELAPSED USER TIME (SEC)      =   0.0000    
       ELAPSED SYSTEM TIME (SEC)    =   0.0000    
       ELAPSED TOTAL CPU TIME (SEC) =   0.0000    
       ELAPSED WALLCLOCK TIME (SEC) =            0

               CONVERGENCE CHECKS FOR EQUILIBRIUM ITERATION     1


 AVERAGE FORCE                      0.578       TIME AVG. FORCE       0.484    
 LARGEST SCALED RESIDUAL FORCE      3.883E-06   AT NODE          2   DOF  1
  CORRESPONDING RESIDUAL FORCE      3.883E-06
 LARGEST INCREMENT OF DISP.         1.009E-03   AT NODE          1   DOF  2
 LARGEST CORRECTION TO DISP.        2.075E-06   AT NODE          2   DOF  3
          THE FORCE     EQUILIBRIUM EQUATIONS HAVE CONVERGED

 ITERATION SUMMARY FOR THE INCREMENT:   1 TOTAL ITERATIONS, OF WHICH
   0 ARE SEVERE DISCONTINUITY ITERATIONS AND  1 ARE EQUILIBRIUM ITERATIONS.

 TIME INCREMENT COMPLETED   3.01    ,  FRACTION OF STEP COMPLETED  0.882    
 STEP TIME COMPLETED        266.    ,  TOTAL TIME COMPLETED         266.    


  INCREMENT   111 STARTS. ATTEMPT NUMBER  1, TIME INCREMENT   3.01    
 
	SYMMETRIC DIRECT SPARSE SOLVER RUNNING ON
 	1 HOST:        1 MPI RANK  x 1 THREAD
 	NUMBER OF EQUATIONS:     18
 	NUMBER OF RHS:           1
 	NUMBER OF FLOPS:         2.109e+03

     CHECK POINT  START OF SOLVER     

     CHECK POINT  END OF SOLVER       

       ELAPSED USER TIME (SEC)      =   0.0000    
       ELAPSED SYSTEM TIME (SEC)    =   0.0000    
       ELAPSED TOTAL CPU TIME (SEC) =   0.0000    
       ELAPSED WALLCLOCK TIME (SEC) =            0

               CONVERGENCE CHECKS FOR EQUILIBRIUM ITERATION     1


 AVERAGE FORCE                      0.577       TIME AVG. FORCE       0.485    
 LARGEST SCALED RESIDUAL FORCE      3.838E-06   AT NODE          2   DOF  1
  CORRESPONDING RESIDUAL FORCE      3.838E-06
 LARGEST INCREMENT OF DISP.         1.009E-03   AT NODE          1   DOF  2
 LARGEST CORRECTION TO DISP.        2.041E-06   AT NODE          2   DOF  3
          THE FORCE     EQUILIBRIUM EQUATIONS HAVE CONVERGED

 ITERATION SUMMARY FOR THE INCREMENT:   1 TOTAL ITERATIONS, OF WHICH
   0 ARE SEVERE DISCONTINUITY ITERATIONS AND  1 ARE EQUILIBRIUM ITERATIONS.

 TIME INCREMENT COMPLETED   3.01    ,  FRACTION OF STEP COMPLETED  0.892    
 STEP TIME COMPLETED        269.    ,  TOTAL TIME COMPLETED         269.    


  INCREMENT   112 STARTS. ATTEMPT NUMBER  1, TIME INCREMENT   3.01    
 
	SYMMETRIC DIRECT SPARSE SOLVER RUNNING ON
 	1 HOST:        1 MPI RANK  x 1 THREAD
 	NUMBER OF EQUATIONS:     18
 	NUMBER OF RHS:           1
 	NUMBER OF FLOPS:         2.109e+03

     CHECK POINT  START OF SOLVER     

     CHECK POINT  END OF SOLVER       

       ELAPSED USER TIME (SEC)      =   0.0000    
       ELAPSED SYSTEM TIME (SEC)    =   0.0000    
       ELAPSED TOTAL CPU TIME (SEC) =   0.0000    
       ELAPSED WALLCLOCK TIME (SEC) =            0

               CONVERGENCE CHECKS FOR EQUILIBRIUM ITERATION     1


 AVERAGE FORCE                      0.575       TIME AVG. FORCE       0.486    
 LARGEST SCALED RESIDUAL FORCE      3.794E-06   AT NODE          2   DOF  1
  CORRESPONDING RESIDUAL FORCE      3.794E-06
 LARGEST INCREMENT OF DISP.         1.009E-03   AT NODE          1   DOF  2
 LARGEST CORRECTION TO DISP.        2.008E-06   AT NODE          2   DOF  3
          THE FORCE     EQUILIBRIUM EQUATIONS HAVE CONVERGED

 ITERATION SUMMARY FOR THE INCREMENT:   1 TOTAL ITERATIONS, OF WHICH
   0 ARE SEVERE DISCONTINUITY ITERATIONS AND  1 ARE EQUILIBRIUM ITERATIONS.

 TIME INCREMENT COMPLETED   3.01    ,  FRACTION OF STEP COMPLETED  0.902    
 STEP TIME COMPLETED        272.    ,  TOTAL TIME COMPLETED         272.    


  INCREMENT   113 STARTS. ATTEMPT NUMBER  1, TIME INCREMENT   3.01    
 
	SYMMETRIC DIRECT SPARSE SOLVER RUNNING ON
 	1 HOST:        1 MPI RANK  x 1 THREAD
 	NUMBER OF EQUATIONS:     18
 	NUMBER OF RHS:           1
 	NUMBER OF FLOPS:         2.109e+03

     CHECK POINT  START OF SOLVER     

     CHECK POINT  END OF SOLVER       

       ELAPSED USER TIME (SEC)      =   0.0000    
       ELAPSED SYSTEM TIME (SEC)    =   0.0000    
       ELAPSED TOTAL CPU TIME (SEC) =   0.0000    
       ELAPSED WALLCLOCK TIME (SEC) =            0

               CONVERGENCE CHECKS FOR EQUILIBRIUM ITERATION     1


 AVERAGE FORCE                      0.573       TIME AVG. FORCE       0.486    
 LARGEST SCALED RESIDUAL FORCE      3.750E-06   AT NODE          2   DOF  1
  CORRESPONDING RESIDUAL FORCE      3.750E-06
 LARGEST INCREMENT OF DISP.         1.009E-03   AT NODE          1   DOF  2
 LARGEST CORRECTION TO DISP.        1.976E-06   AT NODE          2   DOF  3
          THE FORCE     EQUILIBRIUM EQUATIONS HAVE CONVERGED

 ITERATION SUMMARY FOR THE INCREMENT:   1 TOTAL ITERATIONS, OF WHICH
   0 ARE SEVERE DISCONTINUITY ITERATIONS AND  1 ARE EQUILIBRIUM ITERATIONS.

 TIME INCREMENT COMPLETED   3.01    ,  FRACTION OF STEP COMPLETED  0.912    
 STEP TIME COMPLETED        275.    ,  TOTAL TIME COMPLETED         275.    


  INCREMENT   114 STARTS. ATTEMPT NUMBER  1, TIME INCREMENT   3.01    
 
	SYMMETRIC DIRECT SPARSE SOLVER RUNNING ON
 	1 HOST:        1 MPI RANK  x 1 THREAD
 	NUMBER OF EQUATIONS:     18
 	NUMBER OF RHS:           1
 	NUMBER OF FLOPS:         2.109e+03

     CHECK POINT  START OF SOLVER     

     CHECK POINT  END OF SOLVER       

       ELAPSED USER TIME (SEC)      =   0.0000    
       ELAPSED SYSTEM TIME (SEC)    =   0.0000    
       ELAPSED TOTAL CPU TIME (SEC) =   0.0000    
       ELAPSED WALLCLOCK TIME (SEC) =            0

               CONVERGENCE CHECKS FOR EQUILIBRIUM ITERATION     1


 AVERAGE FORCE                      0.572       TIME AVG. FORCE       0.487    
 LARGEST SCALED RESIDUAL FORCE      3.707E-06   AT NODE          2   DOF  1
  CORRESPONDING RESIDUAL FORCE      3.707E-06
 LARGEST INCREMENT OF DISP.         1.009E-03   AT NODE          1   DOF  2
 LARGEST CORRECTION TO DISP.        1.944E-06   AT NODE          2   DOF  3
          THE FORCE     EQUILIBRIUM EQUATIONS HAVE CONVERGED

 ITERATION SUMMARY FOR THE INCREMENT:   1 TOTAL ITERATIONS, OF WHICH
   0 ARE SEVERE DISCONTINUITY ITERATIONS AND  1 ARE EQUILIBRIUM ITERATIONS.

 TIME INCREMENT COMPLETED   3.01    ,  FRACTION OF STEP COMPLETED  0.922    
 STEP TIME COMPLETED        278.    ,  TOTAL TIME COMPLETED         278.    


  INCREMENT   115 STARTS. ATTEMPT NUMBER  1, TIME INCREMENT   3.01    
 
	SYMMETRIC DIRECT SPARSE SOLVER RUNNING ON
 	1 HOST:        1 MPI RANK  x 1 THREAD
 	NUMBER OF EQUATIONS:     18
 	NUMBER OF RHS:           1
 	NUMBER OF FLOPS:         2.109e+03

     CHECK POINT  START OF SOLVER     

     CHECK POINT  END OF SOLVER       

       ELAPSED USER TIME (SEC)      =   0.0000    
       ELAPSED SYSTEM TIME (SEC)    =   0.0000    
       ELAPSED TOTAL CPU TIME (SEC) =   0.0000    
       ELAPSED WALLCLOCK TIME (SEC) =            0

               CONVERGENCE CHECKS FOR EQUILIBRIUM ITERATION     1


 AVERAGE FORCE                      0.570       TIME AVG. FORCE       0.488    
 LARGEST SCALED RESIDUAL FORCE      3.665E-06   AT NODE          2   DOF  1
  CORRESPONDING RESIDUAL FORCE      3.665E-06
 LARGEST INCREMENT OF DISP.         1.009E-03   AT NODE          1   DOF  2
 LARGEST CORRECTION TO DISP.        1.914E-06   AT NODE          2   DOF  3
          THE FORCE     EQUILIBRIUM EQUATIONS HAVE CONVERGED

 ITERATION SUMMARY FOR THE INCREMENT:   1 TOTAL ITERATIONS, OF WHICH
   0 ARE SEVERE DISCONTINUITY ITERATIONS AND  1 ARE EQUILIBRIUM ITERATIONS.

 TIME INCREMENT COMPLETED   3.01    ,  FRACTION OF STEP COMPLETED  0.932    
 STEP TIME COMPLETED        281.    ,  TOTAL TIME COMPLETED         281.    


  INCREMENT   116 STARTS. ATTEMPT NUMBER  1, TIME INCREMENT   3.01    
 
	SYMMETRIC DIRECT SPARSE SOLVER RUNNING ON
 	1 HOST:        1 MPI RANK  x 1 THREAD
 	NUMBER OF EQUATIONS:     18
 	NUMBER OF RHS:           1
 	NUMBER OF FLOPS:         2.109e+03

     CHECK POINT  START OF SOLVER     

     CHECK POINT  END OF SOLVER       

       ELAPSED USER TIME (SEC)      =   0.0000    
       ELAPSED SYSTEM TIME (SEC)    =   0.0000    
       ELAPSED TOTAL CPU TIME (SEC) =   0.0000    
       ELAPSED WALLCLOCK TIME (SEC) =            0

               CONVERGENCE CHECKS FOR EQUILIBRIUM ITERATION     1


 AVERAGE FORCE                      0.568       TIME AVG. FORCE       0.489    
 LARGEST SCALED RESIDUAL FORCE      3.623E-06   AT NODE          2   DOF  1
  CORRESPONDING RESIDUAL FORCE      3.623E-06
 LARGEST INCREMENT OF DISP.         1.009E-03   AT NODE          1   DOF  2
 LARGEST CORRECTION TO DISP.        1.883E-06   AT NODE          2   DOF  3
          THE FORCE     EQUILIBRIUM EQUATIONS HAVE CONVERGED

 ITERATION SUMMARY FOR THE INCREMENT:   1 TOTAL ITERATIONS, OF WHICH
   0 ARE SEVERE DISCONTINUITY ITERATIONS AND  1 ARE EQUILIBRIUM ITERATIONS.

 TIME INCREMENT COMPLETED   3.01    ,  FRACTION OF STEP COMPLETED  0.942    
 STEP TIME COMPLETED        284.    ,  TOTAL TIME COMPLETED         284.    


  INCREMENT   117 STARTS. ATTEMPT NUMBER  1, TIME INCREMENT   3.01    
 
	SYMMETRIC DIRECT SPARSE SOLVER RUNNING ON
 	1 HOST:        1 MPI RANK  x 1 THREAD
 	NUMBER OF EQUATIONS:     18
 	NUMBER OF RHS:           1
 	NUMBER OF FLOPS:         2.109e+03

     CHECK POINT  START OF SOLVER     

     CHECK POINT  END OF SOLVER       

       ELAPSED USER TIME (SEC)      =   0.0000    
       ELAPSED SYSTEM TIME (SEC)    =   0.0000    
       ELAPSED TOTAL CPU TIME (SEC) =   0.0000    
       ELAPSED WALLCLOCK TIME (SEC) =            0

               CONVERGENCE CHECKS FOR EQUILIBRIUM ITERATION     1


 AVERAGE FORCE                      0.567       TIME AVG. FORCE       0.489    
 LARGEST SCALED RESIDUAL FORCE      3.582E-06   AT NODE          2   DOF  1
  CORRESPONDING RESIDUAL FORCE      3.582E-06
 LARGEST INCREMENT OF DISP.         1.009E-03   AT NODE          1   DOF  2
 LARGEST CORRECTION TO DISP.        1.854E-06   AT NODE          2   DOF  3
          THE FORCE     EQUILIBRIUM EQUATIONS HAVE CONVERGED

 ITERATION SUMMARY FOR THE INCREMENT:   1 TOTAL ITERATIONS, OF WHICH
   0 ARE SEVERE DISCONTINUITY ITERATIONS AND  1 ARE EQUILIBRIUM ITERATIONS.

 TIME INCREMENT COMPLETED   3.01    ,  FRACTION OF STEP COMPLETED  0.952    
 STEP TIME COMPLETED        287.    ,  TOTAL TIME COMPLETED         287.    


  INCREMENT   118 STARTS. ATTEMPT NUMBER  1, TIME INCREMENT   3.01    
 
	SYMMETRIC DIRECT SPARSE SOLVER RUNNING ON
 	1 HOST:        1 MPI RANK  x 1 THREAD
 	NUMBER OF EQUATIONS:     18
 	NUMBER OF RHS:           1
 	NUMBER OF FLOPS:         2.109e+03

     CHECK POINT  START OF SOLVER     

     CHECK POINT  END OF SOLVER       

       ELAPSED USER TIME (SEC)      =   0.0000    
       ELAPSED SYSTEM TIME (SEC)    =   0.0000    
       ELAPSED TOTAL CPU TIME (SEC) =   0.0000    
       ELAPSED WALLCLOCK TIME (SEC) =            0

               CONVERGENCE CHECKS FOR EQUILIBRIUM ITERATION     1


 AVERAGE FORCE                      0.565       TIME AVG. FORCE       0.490    
 LARGEST SCALED RESIDUAL FORCE      3.541E-06   AT NODE          2   DOF  1
  CORRESPONDING RESIDUAL FORCE      3.541E-06
 LARGEST INCREMENT OF DISP.         1.009E-03   AT NODE          1   DOF  2
 LARGEST CORRECTION TO DISP.        1.825E-06   AT NODE          2   DOF  3
          THE FORCE     EQUILIBRIUM EQUATIONS HAVE CONVERGED

 ITERATION SUMMARY FOR THE INCREMENT:   1 TOTAL ITERATIONS, OF WHICH
   0 ARE SEVERE DISCONTINUITY ITERATIONS AND  1 ARE EQUILIBRIUM ITERATIONS.

 TIME INCREMENT COMPLETED   3.01    ,  FRACTION OF STEP COMPLETED  0.962    
 STEP TIME COMPLETED        290.    ,  TOTAL TIME COMPLETED         290.    


  INCREMENT   119 STARTS. ATTEMPT NUMBER  1, TIME INCREMENT   3.01    
 
	SYMMETRIC DIRECT SPARSE SOLVER RUNNING ON
 	1 HOST:        1 MPI RANK  x 1 THREAD
 	NUMBER OF EQUATIONS:     18
 	NUMBER OF RHS:           1
 	NUMBER OF FLOPS:         2.109e+03

     CHECK POINT  START OF SOLVER     

     CHECK POINT  END OF SOLVER       

       ELAPSED USER TIME (SEC)      =   0.0000    
       ELAPSED SYSTEM TIME (SEC)    =   0.0000    
       ELAPSED TOTAL CPU TIME (SEC) =   0.0000    
       ELAPSED WALLCLOCK TIME (SEC) =            0

               CONVERGENCE CHECKS FOR EQUILIBRIUM ITERATION     1


 AVERAGE FORCE                      0.563       TIME AVG. FORCE       0.491    
 LARGEST SCALED RESIDUAL FORCE      3.500E-06   AT NODE          2   DOF  1
  CORRESPONDING RESIDUAL FORCE      3.500E-06
 LARGEST INCREMENT OF DISP.         1.009E-03   AT NODE          1   DOF  2
 LARGEST CORRECTION TO DISP.        1.796E-06   AT NODE          2   DOF  3
          THE FORCE     EQUILIBRIUM EQUATIONS HAVE CONVERGED

 ITERATION SUMMARY FOR THE INCREMENT:   1 TOTAL ITERATIONS, OF WHICH
   0 ARE SEVERE DISCONTINUITY ITERATIONS AND  1 ARE EQUILIBRIUM ITERATIONS.

 TIME INCREMENT COMPLETED   3.01    ,  FRACTION OF STEP COMPLETED  0.972    
 STEP TIME COMPLETED        293.    ,  TOTAL TIME COMPLETED         293.    


  INCREMENT   120 STARTS. ATTEMPT NUMBER  1, TIME INCREMENT   3.01    
 
	SYMMETRIC DIRECT SPARSE SOLVER RUNNING ON
 	1 HOST:        1 MPI RANK  x 1 THREAD
 	NUMBER OF EQUATIONS:     18
 	NUMBER OF RHS:           1
 	NUMBER OF FLOPS:         2.109e+03

     CHECK POINT  START OF SOLVER     

     CHECK POINT  END OF SOLVER       

       ELAPSED USER TIME (SEC)      =   0.0000    
       ELAPSED SYSTEM TIME (SEC)    =   0.0000    
       ELAPSED TOTAL CPU TIME (SEC) =   0.0000    
       ELAPSED WALLCLOCK TIME (SEC) =            0

               CONVERGENCE CHECKS FOR EQUILIBRIUM ITERATION     1


 AVERAGE FORCE                      0.562       TIME AVG. FORCE       0.491    
 LARGEST SCALED RESIDUAL FORCE      3.460E-06   AT NODE          2   DOF  1
  CORRESPONDING RESIDUAL FORCE      3.460E-06
 LARGEST INCREMENT OF DISP.         1.009E-03   AT NODE          1   DOF  2
 LARGEST CORRECTION TO DISP.        1.768E-06   AT NODE          2   DOF  3
          THE FORCE     EQUILIBRIUM EQUATIONS HAVE CONVERGED

 ITERATION SUMMARY FOR THE INCREMENT:   1 TOTAL ITERATIONS, OF WHICH
   0 ARE SEVERE DISCONTINUITY ITERATIONS AND  1 ARE EQUILIBRIUM ITERATIONS.

 TIME INCREMENT COMPLETED   3.01    ,  FRACTION OF STEP COMPLETED  0.982    
 STEP TIME COMPLETED        296.    ,  TOTAL TIME COMPLETED         296.    


  INCREMENT   121 STARTS. ATTEMPT NUMBER  1, TIME INCREMENT   3.01    
 
	SYMMETRIC DIRECT SPARSE SOLVER RUNNING ON
 	1 HOST:        1 MPI RANK  x 1 THREAD
 	NUMBER OF EQUATIONS:     18
 	NUMBER OF RHS:           1
 	NUMBER OF FLOPS:         2.109e+03

     CHECK POINT  START OF SOLVER     

     CHECK POINT  END OF SOLVER       

       ELAPSED USER TIME (SEC)      =   0.0000    
       ELAPSED SYSTEM TIME (SEC)    =   0.0000    
       ELAPSED TOTAL CPU TIME (SEC) =   0.0000    
       ELAPSED WALLCLOCK TIME (SEC) =            0

               CONVERGENCE CHECKS FOR EQUILIBRIUM ITERATION     1


 AVERAGE FORCE                      0.560       TIME AVG. FORCE       0.492    
 LARGEST SCALED RESIDUAL FORCE      3.421E-06   AT NODE          2   DOF  1
  CORRESPONDING RESIDUAL FORCE      3.421E-06
 LARGEST INCREMENT OF DISP.         1.009E-03   AT NODE          1   DOF  2
 LARGEST CORRECTION TO DISP.        1.741E-06   AT NODE          2   DOF  3
          THE FORCE     EQUILIBRIUM EQUATIONS HAVE CONVERGED

 ITERATION SUMMARY FOR THE INCREMENT:   1 TOTAL ITERATIONS, OF WHICH
   0 ARE SEVERE DISCONTINUITY ITERATIONS AND  1 ARE EQUILIBRIUM ITERATIONS.

 TIME INCREMENT COMPLETED   3.01    ,  FRACTION OF STEP COMPLETED  0.992    
 STEP TIME COMPLETED        299.    ,  TOTAL TIME COMPLETED         299.    


  INCREMENT   122 STARTS. ATTEMPT NUMBER  1, TIME INCREMENT   2.27    
 
	SYMMETRIC DIRECT SPARSE SOLVER RUNNING ON
 	1 HOST:        1 MPI RANK  x 1 THREAD
 	NUMBER OF EQUATIONS:     18
 	NUMBER OF RHS:           1
 	NUMBER OF FLOPS:         2.109e+03

     CHECK POINT  START OF SOLVER     

     CHECK POINT  END OF SOLVER       

       ELAPSED USER TIME (SEC)      =   0.0000    
       ELAPSED SYSTEM TIME (SEC)    =   0.0000    
       ELAPSED TOTAL CPU TIME (SEC) =   0.0000    
       ELAPSED WALLCLOCK TIME (SEC) =            0

               CONVERGENCE CHECKS FOR EQUILIBRIUM ITERATION     1


 AVERAGE FORCE                      0.559       TIME AVG. FORCE       0.492    
 LARGEST SCALED RESIDUAL FORCE      2.208E-06   AT NODE          2   DOF  1
  CORRESPONDING RESIDUAL FORCE      2.208E-06
 LARGEST INCREMENT OF DISP.         7.624E-04   AT NODE          1   DOF  2
 LARGEST CORRECTION TO DISP.        1.125E-06   AT NODE          2   DOF  3
          THE FORCE     EQUILIBRIUM EQUATIONS HAVE CONVERGED

 ITERATION SUMMARY FOR THE INCREMENT:   1 TOTAL ITERATIONS, OF WHICH
   0 ARE SEVERE DISCONTINUITY ITERATIONS AND  1 ARE EQUILIBRIUM ITERATIONS.

 TIME INCREMENT COMPLETED   2.27    ,  FRACTION OF STEP COMPLETED   1.00    
 STEP TIME COMPLETED        301.    ,  TOTAL TIME COMPLETED         301.    


          THE ANALYSIS HAS BEEN COMPLETED



     ANALYSIS SUMMARY:
     TOTAL OF        122  INCREMENTS
                       0  CUTBACKS IN AUTOMATIC INCREMENTATION
                     126  ITERATIONS INCLUDING CONTACT ITERATIONS IF PRESENT
                     126  PASSES THROUGH THE EQUATION SOLVER OF WHICH 
                     126  INVOLVE MATRIX DECOMPOSITION, INCLUDING
                       0  DECOMPOSITION(S) OF THE MASS MATRIX
                       1  REORDERING OF EQUATIONS TO MINIMIZE WAVEFRONT
                       0  ADDITIONAL RESIDUAL EVALUATIONS FOR LINE SEARCHES
                       0  ADDITIONAL OPERATOR EVALUATIONS FOR LINE SEARCHES
                       4  WARNING MESSAGES DURING USER INPUT PROCESSING
                       0  WARNING MESSAGES DURING ANALYSIS
                       0  ANALYSIS WARNINGS ARE NUMERICAL PROBLEM MESSAGES
                       0  ANALYSIS WARNINGS ARE NEGATIVE EIGENVALUE MESSAGES
                       0  ERROR MESSAGES



     JOB TIME SUMMARY
       USER TIME (SEC)      =     0.60    
       SYSTEM TIME (SEC)    =     0.30    
       TOTAL CPU TIME (SEC) =     0.90    
       WALLCLOCK TIME (SEC) =            2
       MEMORY PEAK (GB)     =            0
