 Abaqus/Standard 2023                  DATE 23-Jul-2024 TIME 16:58:47
 SUMMARY OF JOB INFORMATION:
 STEP  INC ATT SEVERE EQUIL TOTAL  TOTAL      STEP       INC OF       DOF    IF
               DISCON ITERS ITERS  TIME/    TIME/LPF    TIME/LPF    MONITOR RIKS
               ITERS               FREQ
   1     1   1     0     2     2  0.000301   0.000301   0.0003011 
   1     2   1     0     1     1  0.000602   0.000602   0.0003011 
   1     3   1     0     1     1  0.00105    0.00105    0.0004516 
   1     4   1     0     1     1  0.00173    0.00173    0.0006775 
   1     5   1     0     1     1  0.00275    0.00275    0.001016  
   1     6   1     0     1     1  0.00427    0.00427    0.001524  
   1     7   1     0     1     1  0.00656    0.00656    0.002286  
   1     8   1     0     1     1  0.00999    0.00999    0.003430  
   1     9   1     0     1     1  0.0151     0.0151     0.005144  
   1    10   1     0     1     1  0.0228     0.0228     0.007717  
   1    11   1     0     1     1  0.0344     0.0344     0.01157   
   1    12   1     0     1     1  0.0518     0.0518     0.01736   
   1    13   1     0     1     1  0.0778     0.0778     0.02604   
   1    14   1     0     1     1  0.117      0.117      0.03907   
   1    15   1     0     1     1  0.175      0.175      0.05860   
   1    16   1     0     1     1  0.263      0.263      0.08790   
   1    17   1     0     1     1  0.395      0.395      0.1318    
   1    18   1     0     1     1  0.593      0.593      0.1978    
   1    19   1     0     1     1  0.890      0.890      0.2967    
   1    20   1     0     1     1  1.33       1.33       0.4450    
   1    21   1     0     1     1  2.00       2.00       0.6675    
   1    22   1     0     1     1  3.00       3.00       1.001     
   1    23   1     0     3     3  4.51       4.51       1.502     
   1    24   1     0     2     2  6.76       6.76       2.253     
   1    25   1     0     1     1  9.77       9.77       3.011     
   1    26   1     0     1     1  12.8       12.8       3.011     
   1    27   1     0     1     1  15.8       15.8       3.011     
   1    28   1     0     1     1  18.8       18.8       3.011     
   1    29   1     0     1     1  21.8       21.8       3.011     
   1    30   1     0     1     1  24.8       24.8       3.011     
   1    31   1     0     1     1  27.8       27.8       3.011     
   1    32   1     0     1     1  30.8       30.8       3.011     
   1    33   1     0     1     1  33.9       33.9       3.011     
   1    34   1     0     1     1  36.9       36.9       3.011     
   1    35   1     0     1     1  39.9       39.9       3.011     
   1    36   1     0     1     1  42.9       42.9       3.011     
   1    37   1     0     1     1  45.9       45.9       3.011     
   1    38   1     0     1     1  48.9       48.9       3.011     
   1    39   1     0     1     1  51.9       51.9       3.011     
   1    40   1     0     1     1  54.9       54.9       3.011     
   1    41   1     0     1     1  57.9       57.9       3.011     
   1    42   1     0     1     1  61.0       61.0       3.011     
   1    43   1     0     1     1  64.0       64.0       3.011     
   1    44   1     0     1     1  67.0       67.0       3.011     
   1    45   1     0     1     1  70.0       70.0       3.011     
   1    46   1     0     1     1  73.0       73.0       3.011     
   1    47   1     0     1     1  76.0       76.0       3.011     
   1    48   1     0     1     1  79.0       79.0       3.011     
   1    49   1     0     1     1  82.0       82.0       3.011     
   1    50   1     0     1     1  85.0       85.0       3.011     
   1    51   1     0     1     1  88.1       88.1       3.011     
   1    52   1     0     1     1  91.1       91.1       3.011     
   1    53   1     0     1     1  94.1       94.1       3.011     
   1    54   1     0     1     1  97.1       97.1       3.011     
   1    55   1     0     1     1  100.       100.       3.011     
   1    56   1     0     1     1  103.       103.       3.011     
   1    57   1     0     1     1  106.       106.       3.011     
   1    58   1     0     1     1  109.       109.       3.011     
   1    59   1     0     1     1  112.       112.       3.011     
   1    60   1     0     1     1  115.       115.       3.011     
   1    61   1     0     1     1  118.       118.       3.011     
   1    62   1     0     1     1  121.       121.       3.011     
   1    63   1     0     1     1  124.       124.       3.011     
   1    64   1     0     1     1  127.       127.       3.011     
   1    65   1     0     1     1  130.       130.       3.011     
   1    66   1     0     1     1  133.       133.       3.011     
   1    67   1     0     1     1  136.       136.       3.011     
   1    68   1     0     1     1  139.       139.       3.011     
   1    69   1     0     1     1  142.       142.       3.011     
   1    70   1     0     1     1  145.       145.       3.011     
   1    71   1     0     1     1  148.       148.       3.011     
   1    72   1     0     1     1  151.       151.       3.011     
   1    73   1     0     1     1  154.       154.       3.011     
   1    74   1     0     1     1  157.       157.       3.011     
   1    75   1     0     1     1  160.       160.       3.011     
   1    76   1     0     1     1  163.       163.       3.011     
   1    77   1     0     1     1  166.       166.       3.011     
   1    78   1     0     1     1  169.       169.       3.011     
   1    79   1     0     1     1  172.       172.       3.011     
   1    80   1     0     1     1  175.       175.       3.011     
   1    81   1     0     1     1  178.       178.       3.011     
   1    82   1     0     1     1  181.       181.       3.011     
   1    83   1     0     1     1  184.       184.       3.011     
   1    84   1     0     1     1  187.       187.       3.011     
   1    85   1     0     1     1  190.       190.       3.011     
   1    86   1     0     1     1  193.       193.       3.011     
   1    87   1     0     1     1  196.       196.       3.011     
   1    88   1     0     1     1  199.       199.       3.011     
   1    89   1     0     1     1  202.       202.       3.011     
   1    90   1     0     1     1  205.       205.       3.011     
   1    91   1     0     1     1  208.       208.       3.011     
   1    92   1     0     1     1  211.       211.       3.011     
   1    93   1     0     1     1  215.       215.       3.011     
   1    94   1     0     1     1  218.       218.       3.011     
   1    95   1     0     1     1  221.       221.       3.011     
   1    96   1     0     1     1  224.       224.       3.011     
   1    97   1     0     1     1  227.       227.       3.011     
   1    98   1     0     1     1  230.       230.       3.011     
   1    99   1     0     1     1  233.       233.       3.011     
   1   100   1     0     1     1  236.       236.       3.011     
   1   101   1     0     1     1  239.       239.       3.011     
   1   102   1     0     1     1  242.       242.       3.011     
   1   103   1     0     1     1  245.       245.       3.011     
   1   104   1     0     1     1  248.       248.       3.011     
   1   105   1     0     1     1  251.       251.       3.011     
   1   106   1     0     1     1  254.       254.       3.011     
   1   107   1     0     1     1  257.       257.       3.011     
   1   108   1     0     1     1  260.       260.       3.011     
   1   109   1     0     1     1  263.       263.       3.011     
   1   110   1     0     1     1  266.       266.       3.011     
   1   111   1     0     1     1  269.       269.       3.011     
   1   112   1     0     1     1  272.       272.       3.011     
   1   113   1     0     1     1  275.       275.       3.011     
   1   114   1     0     1     1  278.       278.       3.011     
   1   115   1     0     1     1  281.       281.       3.011     
   1   116   1     0     1     1  284.       284.       3.011     
   1   117   1     0     1     1  287.       287.       3.011     
   1   118   1     0     1     1  290.       290.       3.011     
   1   119   1     0     1     1  293.       293.       3.011     
   1   120   1     0     1     1  296.       296.       3.011     
   1   121   1     0     1     1  299.       299.       3.011     
   1   122   1     0     1     1  301.       301.       2.275     
                          
 THE ANALYSIS HAS COMPLETED SUCCESSFULLY
