 Abaqus/Standard 2023                  DATE 23-Jul-2024 TIME 18:00:40
 SUMMARY OF JOB INFORMATION:
 STEP  INC ATT SEVERE EQUIL TOTAL  TOTAL      STEP       INC OF       DOF    IF
               DISCON ITERS ITERS  TIME/    TIME/LPF    TIME/LPF    MONITOR RIKS
               ITERS               FREQ
   1     1   1     0     2     2  0.000216   0.000216   0.0002156 
   1     2   1     0     1     1  0.000431   0.000431   0.0002156 
   1     3   1     0     1     1  0.000755   0.000755   0.0003234 
   1     4   1     0     1     1  0.00124    0.00124    0.0004851 
   1     5   1     0     1     1  0.00197    0.00197    0.0007277 
   1     6   1     0     1     1  0.00306    0.00306    0.001092  
   1     7   1     0     1     1  0.00470    0.00470    0.001637  
   1     8   1     0     1     1  0.00715    0.00715    0.002456  
   1     9   1     0     1     1  0.0108     0.0108     0.003684  
   1    10   1     0     1     1  0.0164     0.0164     0.005526  
   1    11   1     0     1     1  0.0247     0.0247     0.008289  
   1    12   1     0     1     1  0.0371     0.0371     0.01243   
   1    13   1     0     1     1  0.0557     0.0557     0.01865   
   1    14   1     0     1     1  0.0837     0.0837     0.02798   
   1    15   1     0     1     1  0.126      0.126      0.04196   
   1    16   1     0     1     1  0.189      0.189      0.06295   
   1    17   1     0     1     1  0.283      0.283      0.09442   
   1    18   1     0     1     1  0.425      0.425      0.1416    
   1    19   1     0     1     1  0.637      0.637      0.2124    
   1    20   1     0     1     1  0.956      0.956      0.3187    
   1    21   1     0     1     1  1.43       1.43       0.4780    
   1    22   1     0     1     1  2.15       2.15       0.7170    
   1    23   1     0     3     3  3.23       3.23       1.075     
   1    24   1     0     2     2  4.84       4.84       1.613     
   1    25   1     0     1     1  7.00       7.00       2.156     
   1    26   1     0     1     1  9.15       9.15       2.156     
   1    27   1     0     1     1  11.3       11.3       2.156     
   1    28   1     0     1     1  13.5       13.5       2.156     
   1    29   1     0     1     1  15.6       15.6       2.156     
   1    30   1     0     1     1  17.8       17.8       2.156     
   1    31   1     0     1     1  19.9       19.9       2.156     
   1    32   1     0     1     1  22.1       22.1       2.156     
   1    33   1     0     1     1  24.2       24.2       2.156     
   1    34   1     0     1     1  26.4       26.4       2.156     
   1    35   1     0     1     1  28.6       28.6       2.156     
   1    36   1     0     1     1  30.7       30.7       2.156     
   1    37   1     0     1     1  32.9       32.9       2.156     
   1    38   1     0     1     1  35.0       35.0       2.156     
   1    39   1     0     1     1  37.2       37.2       2.156     
   1    40   1     0     1     1  39.3       39.3       2.156     
   1    41   1     0     1     1  41.5       41.5       2.156     
   1    42   1     0     1     1  43.7       43.7       2.156     
   1    43   1     0     1     1  45.8       45.8       2.156     
   1    44   1     0     1     1  48.0       48.0       2.156     
   1    45   1     0     1     1  50.1       50.1       2.156     
   1    46   1     0     1     1  52.3       52.3       2.156     
   1    47   1     0     1     1  54.4       54.4       2.156     
   1    48   1     0     1     1  56.6       56.6       2.156     
   1    49   1     0     1     1  58.7       58.7       2.156     
   1    50   1     0     1     1  60.9       60.9       2.156     
   1    51   1     0     1     1  63.1       63.1       2.156     
   1    52   1     0     1     1  65.2       65.2       2.156     
   1    53   1     0     1     1  67.4       67.4       2.156     
   1    54   1     0     1     1  69.5       69.5       2.156     
   1    55   1     0     1     1  71.7       71.7       2.156     
   1    56   1     0     1     1  73.8       73.8       2.156     
   1    57   1     0     1     1  76.0       76.0       2.156     
   1    58   1     0     1     1  78.2       78.2       2.156     
   1    59   1     0     1     1  80.3       80.3       2.156     
   1    60   1     0     1     1  82.5       82.5       2.156     
   1    61   1     0     1     1  84.6       84.6       2.156     
   1    62   1     0     1     1  86.8       86.8       2.156     
   1    63   1     0     1     1  88.9       88.9       2.156     
   1    64   1     0     1     1  91.1       91.1       2.156     
   1    65   1     0     1     1  93.2       93.2       2.156     
   1    66   1     0     1     1  95.4       95.4       2.156     
   1    67   1     0     1     1  97.6       97.6       2.156     
   1    68   1     0     1     1  99.7       99.7       2.156     
   1    69   1     0     1     1  102.       102.       2.156     
   1    70   1     0     1     1  104.       104.       2.156     
   1    71   1     0     1     1  106.       106.       2.156     
   1    72   1     0     1     1  108.       108.       2.156     
   1    73   1     0     1     1  110.       110.       2.156     
   1    74   1     0     1     1  113.       113.       2.156     
   1    75   1     0     1     1  115.       115.       2.156     
   1    76   1     0     1     1  117.       117.       2.156     
   1    77   1     0     1     1  119.       119.       2.156     
   1    78   1     0     1     1  121.       121.       2.156     
   1    79   1     0     1     1  123.       123.       2.156     
   1    80   1     0     1     1  126.       126.       2.156     
   1    81   1     0     1     1  128.       128.       2.156     
   1    82   1     0     1     1  130.       130.       2.156     
   1    83   1     0     1     1  132.       132.       2.156     
   1    84   1     0     1     1  134.       134.       2.156     
   1    85   1     0     1     1  136.       136.       2.156     
   1    86   1     0     1     1  139.       139.       2.156     
   1    87   1     0     1     1  141.       141.       2.156     
   1    88   1     0     1     1  143.       143.       2.156     
   1    89   1     0     1     1  145.       145.       2.156     
   1    90   1     0     1     1  147.       147.       2.156     
   1    91   1     0     1     1  149.       149.       2.156     
   1    92   1     0     1     1  151.       151.       2.156     
   1    93   1     0     1     1  154.       154.       2.156     
   1    94   1     0     1     1  156.       156.       2.156     
   1    95   1     0     1     1  158.       158.       2.156     
   1    96   1     0     1     1  160.       160.       2.156     
   1    97   1     0     1     1  162.       162.       2.156     
   1    98   1     0     1     1  164.       164.       2.156     
   1    99   1     0     1     1  167.       167.       2.156     
   1   100   1     0     1     1  169.       169.       2.156     
   1   101   1     0     1     1  171.       171.       2.156     
   1   102   1     0     1     1  173.       173.       2.156     
   1   103   1     0     1     1  175.       175.       2.156     
   1   104   1     0     1     1  177.       177.       2.156     
   1   105   1     0     1     1  179.       179.       2.156     
   1   106   1     0     1     1  182.       182.       2.156     
   1   107   1     0     1     1  184.       184.       2.156     
   1   108   1     0     1     1  186.       186.       2.156     
   1   109   1     0     1     1  188.       188.       2.156     
   1   110   1     0     1     1  190.       190.       2.156     
   1   111   1     0     1     1  192.       192.       2.156     
   1   112   1     0     1     1  195.       195.       2.156     
   1   113   1     0     1     1  197.       197.       2.156     
   1   114   1     0     1     1  199.       199.       2.156     
   1   115   1     0     1     1  201.       201.       2.156     
   1   116   1     0     1     1  203.       203.       2.156     
   1   117   1     0     1     1  205.       205.       2.156     
   1   118   1     0     1     1  208.       208.       2.156     
   1   119   1     0     1     1  210.       210.       2.156     
   1   120   1     0     1     1  212.       212.       2.156     
   1   121   1     0     1     1  214.       214.       2.156     
   1   122   1     0     1     1  216.       216.       1.629     
                          
 THE ANALYSIS HAS COMPLETED SUCCESSFULLY
