1

   Abaqus 2023                                  Date 23-Jul-2024   Time 18:00:40
   For use by ETH ZUERICH under license from Dassault Systemes or its subsidiary.

                                                                                 
                                                                                 
 STEP    1     INCREMENT     1     STEP TIME    0.00    


                        S T E P       1     S T A T I C   A N A L Y S I S


                                                                                          

     AUTOMATIC TIME CONTROL WITH -
          A SUGGESTED INITIAL TIME INCREMENT OF                2.156E-04
          AND A TOTAL TIME PERIOD OF                            216.    
          THE MINIMUM TIME INCREMENT ALLOWED IS                2.156E-04
          THE MAXIMUM TIME INCREMENT ALLOWED IS                 2.16    

     LINEAR EQUATION SOLVER TYPE         DIRECT SPARSE

 CONVERGENCE TOLERANCE PARAMETERS FOR FORCE    
     CRITERION FOR RESIDUAL FORCE     FOR A NONLINEAR PROBLEM          5.000E-03
     CRITERION FOR DISP.    CORRECTION IN A NONLINEAR PROBLEM          1.000E-02
     INITIAL VALUE OF TIME AVERAGE FORCE                               1.000E-02
     AVERAGE FORCE     IS TIME AVERAGE FORCE    
     ALTERNATE CRIT. FOR RESIDUAL FORCE     FOR A NONLINEAR PROBLEM    2.000E-02
     CRITERION FOR ZERO FORCE     RELATIVE TO TIME AVRG. FORCE         1.000E-05
     CRITERION FOR RESIDUAL FORCE     WHEN THERE IS ZERO FLUX          1.000E-05
     CRITERION FOR DISP.    CORRECTION WHEN THERE IS ZERO FLUX         1.000E-03
     CRITERION FOR RESIDUAL FORCE     FOR A LINEAR INCREMENT           1.000E-08
     FIELD CONVERSION RATIO                                             1.00    
     CRITERION FOR ZERO FORCE     REL. TO TIME AVRG. MAX. FORCE        1.000E-05
     CRITERION FOR ZERO DISP.    RELATIVE TO CHARACTERISTIC LENGTH     1.000E-08

     VOLUMETRIC STRAIN COMPATIBILITY TOLERANCE FOR HYBRID SOLIDS       1.000E-05
     AXIAL STRAIN COMPATIBILITY TOLERANCE FOR HYBRID BEAMS             1.000E-05
     TRANS. SHEAR STRAIN COMPATIBILITY TOLERANCE FOR HYBRID BEAMS      1.000E-05
     SOFT CONTACT CONSTRAINT COMPATIBILITY TOLERANCE FOR P>P0          5.000E-03
     SOFT CONTACT CONSTRAINT COMPATIBILITY TOLERANCE FOR P=0.0         0.100    
     CONTACT FORCE ERROR TOLERANCE FOR CONVERT SDI=YES                 1.00    
     DISPLACEMENT COMPATIBILITY TOLERANCE FOR DCOUP ELEMENTS           1.000E-05
     ROTATION COMPATIBILITY TOLERANCE FOR DCOUP ELEMENTS               1.000E-05

 EQUILIBRIUM WILL BE CHECKED FOR SEVERE DISCONTINUITY ITERATIONS

 TIME INCREMENTATION CONTROL PARAMETERS:
     FIRST EQUILIBRIUM ITERATION FOR CONSECUTIVE DIVERGENCE CHECK              4
     EQUILIBRIUM ITERATION AT WHICH LOG. CONVERGENCE RATE CHECK BEGINS         8
     EQUILIBRIUM ITERATION AFTER WHICH ALTERNATE RESIDUAL IS USED              9
     MAXIMUM EQUILIBRIUM ITERATIONS ALLOWED                                   16
     EQUILIBRIUM ITERATION COUNT FOR CUT-BACK IN NEXT INCREMENT               10
     MAXIMUM EQUILIB. ITERS IN TWO INCREMENTS FOR TIME INCREMENT INCREASE      4
     MAXIMUM ITERATIONS FOR SEVERE DISCONTINUITIES                            50
     MAXIMUM ATTEMPTS ALLOWED IN AN INCREMENT                                  5
     MAXIMUM DISCON. ITERS IN TWO INCREMENTS FOR TIME INCREMENT INCREASE      50
     MAXIMUM CONTACT AUGMENTATIONS FOR *SURFACE BEHAVIOR,AUGMENTED LAGRANGE   50
     CUT-BACK FACTOR AFTER DIVERGENCE                                 0.2500    
     CUT-BACK FACTOR FOR TOO SLOW CONVERGENCE                         0.5000    
     CUT-BACK FACTOR AFTER TOO MANY EQUILIBRIUM ITERATIONS            0.7500    
     CUT-BACK FACTOR AFTER TOO MANY SEVERE DISCONTINUITY ITERATIONS   0.2500    
     CUT-BACK FACTOR AFTER PROBLEMS IN ELEMENT ASSEMBLY               0.2500    
     INCREASE FACTOR AFTER TWO INCREMENTS THAT CONVERGE QUICKLY        1.500    
     MAX. TIME INCREMENT INCREASE FACTOR ALLOWED                       1.500    
     MAX. TIME INCREMENT INCREASE FACTOR ALLOWED (DYNAMICS)            1.250    
     MAX. TIME INCREMENT INCREASE FACTOR ALLOWED (DIFFUSION)           2.000    
     MINIMUM TIME INCREMENT RATIO FOR EXTRAPOLATION TO OCCUR          0.1000    
     MAX. RATIO OF TIME INCREMENT TO STABILITY LIMIT                   1.000    
     FRACTION OF STABILITY LIMIT FOR NEW TIME INCREMENT               0.9500    
     TIME INCREMENT INCREASE FACTOR BEFORE A TIME POINT                1.000    
     GLOBAL STABILIZATION CONTROL IS NOT USED

          PRINT OF INCREMENT NUMBER, TIME, ETC., EVERY    1  INCREMENTS

     THE MAXIMUM NUMBER OF INCREMENTS IN THIS STEP IS                    1000

          LARGE DISPLACEMENT THEORY WILL BE USED

     LINEAR EXTRAPOLATION WILL BE USED

     CHARACTERISTIC ELEMENT LENGTH     0.100    

     DETAILS REGARDING ACTUAL SOLUTION WAVEFRONT REQUESTED

     DETAILED OUTPUT OF DIAGNOSTICS TO DATABASE REQUESTED

     PRINT OF INCREMENT NUMBER, TIME, ETC., TO THE MESSAGE FILE EVERY     1  INCREMENTS

     COLLECTING MODEL CONSTRAINT INFORMATION FOR OVERCONSTRAINT CHECKS

     COLLECTING STEP CONSTRAINT INFORMATION FOR OVERCONSTRAINT CHECKS


  INCREMENT     1 STARTS. ATTEMPT NUMBER  1, TIME INCREMENT  2.156E-04
 
	SYMMETRIC DIRECT SPARSE SOLVER RUNNING ON
 	1 HOST:        1 MPI RANK  x 1 THREAD
 	NUMBER OF EQUATIONS:     18
 	NUMBER OF RHS:           1
 	NUMBER OF FLOPS:         2.109e+03

     CHECK POINT  START OF SOLVER     

     CHECK POINT  END OF SOLVER       

       ELAPSED USER TIME (SEC)      =   0.0000    
       ELAPSED SYSTEM TIME (SEC)    =   0.0000    
       ELAPSED TOTAL CPU TIME (SEC) =   0.0000    
       ELAPSED WALLCLOCK TIME (SEC) =            0

               CONVERGENCE CHECKS FOR EQUILIBRIUM ITERATION     1


 AVERAGE FORCE                      6.268E-06   TIME AVG. FORCE       6.268E-06
 LARGEST SCALED RESIDUAL FORCE      7.051E-13   AT NODE          1   DOF  3
  CORRESPONDING RESIDUAL FORCE      7.051E-13
 LARGEST INCREMENT OF DISP.         1.000E-08   AT NODE          1   DOF  2
 LARGEST CORRECTION TO DISP.        1.000E-08   AT NODE          1   DOF  2
          DISP.    CORRECTION TOO LARGE COMPARED TO DISP.    INCREMENT
 
	SYMMETRIC DIRECT SPARSE SOLVER RUNNING ON
 	1 HOST:        1 MPI RANK  x 1 THREAD
 	NUMBER OF EQUATIONS:     18
 	NUMBER OF RHS:           1
 	NUMBER OF FLOPS:         2.109e+03

     CHECK POINT  START OF SOLVER     

     CHECK POINT  END OF SOLVER       

       ELAPSED USER TIME (SEC)      =   0.0000    
       ELAPSED SYSTEM TIME (SEC)    =   0.0000    
       ELAPSED TOTAL CPU TIME (SEC) =   0.0000    
       ELAPSED WALLCLOCK TIME (SEC) =            0

               CONVERGENCE CHECKS FOR EQUILIBRIUM ITERATION     2


 AVERAGE FORCE                      6.268E-06   TIME AVG. FORCE       6.268E-06
 LARGEST SCALED RESIDUAL FORCE     -2.268E-21   AT NODE          4   DOF  1
  CORRESPONDING RESIDUAL FORCE     -2.268E-21
 LARGEST INCREMENT OF DISP.         1.000E-08   AT NODE          1   DOF  2
 LARGEST CORRECTION TO DISP.        1.950E-16   AT NODE          1   DOF  3
          THE FORCE     EQUILIBRIUM EQUATIONS HAVE CONVERGED

 ITERATION SUMMARY FOR THE INCREMENT:   2 TOTAL ITERATIONS, OF WHICH
   0 ARE SEVERE DISCONTINUITY ITERATIONS AND  2 ARE EQUILIBRIUM ITERATIONS.

 TIME INCREMENT COMPLETED  2.156E-04,  FRACTION OF STEP COMPLETED  1.000E-06
 STEP TIME COMPLETED       2.156E-04,  TOTAL TIME COMPLETED        2.156E-04


  INCREMENT     2 STARTS. ATTEMPT NUMBER  1, TIME INCREMENT  2.156E-04
 
	SYMMETRIC DIRECT SPARSE SOLVER RUNNING ON
 	1 HOST:        1 MPI RANK  x 1 THREAD
 	NUMBER OF EQUATIONS:     18
 	NUMBER OF RHS:           1
 	NUMBER OF FLOPS:         2.109e+03

     CHECK POINT  START OF SOLVER     

     CHECK POINT  END OF SOLVER       

       ELAPSED USER TIME (SEC)      =   0.0000    
       ELAPSED SYSTEM TIME (SEC)    =   0.0000    
       ELAPSED TOTAL CPU TIME (SEC) =   0.0000    
       ELAPSED WALLCLOCK TIME (SEC) =            0

               CONVERGENCE CHECKS FOR EQUILIBRIUM ITERATION     1


 AVERAGE FORCE                      3.761E-05   TIME AVG. FORCE       2.194E-05
 LARGEST SCALED RESIDUAL FORCE     -4.672E-21   AT NODE          4   DOF  1
  CORRESPONDING RESIDUAL FORCE     -4.672E-21
 LARGEST INCREMENT OF DISP.         1.000E-08   AT NODE          1   DOF  2
 LARGEST CORRECTION TO DISP.        3.900E-16   AT NODE          1   DOF  1
          THE FORCE     EQUILIBRIUM RESPONSE WAS LINEAR IN THIS INCREMENT
          TIME INCREMENT MAY NOW INCREASE TO    3.234E-04

 ITERATION SUMMARY FOR THE INCREMENT:   1 TOTAL ITERATIONS, OF WHICH
   0 ARE SEVERE DISCONTINUITY ITERATIONS AND  1 ARE EQUILIBRIUM ITERATIONS.

 TIME INCREMENT COMPLETED  2.156E-04,  FRACTION OF STEP COMPLETED  2.000E-06
 STEP TIME COMPLETED       4.312E-04,  TOTAL TIME COMPLETED        4.312E-04


  INCREMENT     3 STARTS. ATTEMPT NUMBER  1, TIME INCREMENT  3.234E-04
 
	SYMMETRIC DIRECT SPARSE SOLVER RUNNING ON
 	1 HOST:        1 MPI RANK  x 1 THREAD
 	NUMBER OF EQUATIONS:     18
 	NUMBER OF RHS:           1
 	NUMBER OF FLOPS:         2.109e+03

     CHECK POINT  START OF SOLVER     

     CHECK POINT  END OF SOLVER       

       ELAPSED USER TIME (SEC)      =   0.0000    
       ELAPSED SYSTEM TIME (SEC)    =   0.0000    
       ELAPSED TOTAL CPU TIME (SEC) =   0.0000    
       ELAPSED WALLCLOCK TIME (SEC) =            0

               CONVERGENCE CHECKS FOR EQUILIBRIUM ITERATION     1


 AVERAGE FORCE                      6.581E-05   TIME AVG. FORCE       3.656E-05
 LARGEST SCALED RESIDUAL FORCE     -5.570E-21   AT NODE          3   DOF  1
  CORRESPONDING RESIDUAL FORCE     -5.570E-21
 LARGEST INCREMENT OF DISP.         1.500E-08   AT NODE          1   DOF  2
 LARGEST CORRECTION TO DISP.        7.312E-16   AT NODE          6   DOF  3
          THE FORCE     EQUILIBRIUM RESPONSE WAS LINEAR IN THIS INCREMENT
          TIME INCREMENT MAY NOW INCREASE TO    4.851E-04

 ITERATION SUMMARY FOR THE INCREMENT:   1 TOTAL ITERATIONS, OF WHICH
   0 ARE SEVERE DISCONTINUITY ITERATIONS AND  1 ARE EQUILIBRIUM ITERATIONS.

 TIME INCREMENT COMPLETED  3.234E-04,  FRACTION OF STEP COMPLETED  3.500E-06
 STEP TIME COMPLETED       7.547E-04,  TOTAL TIME COMPLETED        7.547E-04


  INCREMENT     4 STARTS. ATTEMPT NUMBER  1, TIME INCREMENT  4.851E-04
 
	SYMMETRIC DIRECT SPARSE SOLVER RUNNING ON
 	1 HOST:        1 MPI RANK  x 1 THREAD
 	NUMBER OF EQUATIONS:     18
 	NUMBER OF RHS:           1
 	NUMBER OF FLOPS:         2.109e+03

     CHECK POINT  START OF SOLVER     

     CHECK POINT  END OF SOLVER       

       ELAPSED USER TIME (SEC)      =   0.0000    
       ELAPSED SYSTEM TIME (SEC)    =   0.0000    
       ELAPSED TOTAL CPU TIME (SEC) =   0.0000    
       ELAPSED WALLCLOCK TIME (SEC) =            0

               CONVERGENCE CHECKS FOR EQUILIBRIUM ITERATION     1


 AVERAGE FORCE                      1.081E-04   TIME AVG. FORCE       5.445E-05
 LARGEST SCALED RESIDUAL FORCE      1.871E-20   AT NODE          6   DOF  3
  CORRESPONDING RESIDUAL FORCE      1.871E-20
 LARGEST INCREMENT OF DISP.         2.250E-08   AT NODE          1   DOF  2
 LARGEST CORRECTION TO DISP.        1.645E-15   AT NODE          1   DOF  1
          THE FORCE     EQUILIBRIUM RESPONSE WAS LINEAR IN THIS INCREMENT
          TIME INCREMENT MAY NOW INCREASE TO    7.277E-04

 ITERATION SUMMARY FOR THE INCREMENT:   1 TOTAL ITERATIONS, OF WHICH
   0 ARE SEVERE DISCONTINUITY ITERATIONS AND  1 ARE EQUILIBRIUM ITERATIONS.

 TIME INCREMENT COMPLETED  4.851E-04,  FRACTION OF STEP COMPLETED  5.750E-06
 STEP TIME COMPLETED       1.240E-03,  TOTAL TIME COMPLETED        1.240E-03


  INCREMENT     5 STARTS. ATTEMPT NUMBER  1, TIME INCREMENT  7.277E-04
 
	SYMMETRIC DIRECT SPARSE SOLVER RUNNING ON
 	1 HOST:        1 MPI RANK  x 1 THREAD
 	NUMBER OF EQUATIONS:     18
 	NUMBER OF RHS:           1
 	NUMBER OF FLOPS:         2.109e+03

     CHECK POINT  START OF SOLVER     

     CHECK POINT  END OF SOLVER       

       ELAPSED USER TIME (SEC)      =   0.0000    
       ELAPSED SYSTEM TIME (SEC)    =   0.0000    
       ELAPSED TOTAL CPU TIME (SEC) =   0.0000    
       ELAPSED WALLCLOCK TIME (SEC) =            0

               CONVERGENCE CHECKS FOR EQUILIBRIUM ITERATION     1


 AVERAGE FORCE                      1.716E-04   TIME AVG. FORCE       7.788E-05
 LARGEST SCALED RESIDUAL FORCE     -1.810E-20   AT NODE          4   DOF  1
  CORRESPONDING RESIDUAL FORCE     -1.810E-20
 LARGEST INCREMENT OF DISP.         3.375E-08   AT NODE          1   DOF  2
 LARGEST CORRECTION TO DISP.        3.702E-15   AT NODE          5   DOF  3
          THE FORCE     EQUILIBRIUM RESPONSE WAS LINEAR IN THIS INCREMENT
          TIME INCREMENT MAY NOW INCREASE TO    1.092E-03

 ITERATION SUMMARY FOR THE INCREMENT:   1 TOTAL ITERATIONS, OF WHICH
   0 ARE SEVERE DISCONTINUITY ITERATIONS AND  1 ARE EQUILIBRIUM ITERATIONS.

 TIME INCREMENT COMPLETED  7.277E-04,  FRACTION OF STEP COMPLETED  9.125E-06
 STEP TIME COMPLETED       1.968E-03,  TOTAL TIME COMPLETED        1.968E-03


  INCREMENT     6 STARTS. ATTEMPT NUMBER  1, TIME INCREMENT  1.092E-03
 
	SYMMETRIC DIRECT SPARSE SOLVER RUNNING ON
 	1 HOST:        1 MPI RANK  x 1 THREAD
 	NUMBER OF EQUATIONS:     18
 	NUMBER OF RHS:           1
 	NUMBER OF FLOPS:         2.109e+03

     CHECK POINT  START OF SOLVER     

     CHECK POINT  END OF SOLVER       

       ELAPSED USER TIME (SEC)      =   0.0000    
       ELAPSED SYSTEM TIME (SEC)    =   0.0000    
       ELAPSED TOTAL CPU TIME (SEC) =   0.0000    
       ELAPSED WALLCLOCK TIME (SEC) =            0

               CONVERGENCE CHECKS FOR EQUILIBRIUM ITERATION     1


 AVERAGE FORCE                      2.668E-04   TIME AVG. FORCE       1.094E-04
 LARGEST SCALED RESIDUAL FORCE     -3.634E-20   AT NODE          3   DOF  1
  CORRESPONDING RESIDUAL FORCE     -3.634E-20
 LARGEST INCREMENT OF DISP.         5.063E-08   AT NODE          1   DOF  2
 LARGEST CORRECTION TO DISP.        8.329E-15   AT NODE          1   DOF  1
          THE FORCE     EQUILIBRIUM RESPONSE WAS LINEAR IN THIS INCREMENT
          TIME INCREMENT MAY NOW INCREASE TO    1.637E-03

 ITERATION SUMMARY FOR THE INCREMENT:   1 TOTAL ITERATIONS, OF WHICH
   0 ARE SEVERE DISCONTINUITY ITERATIONS AND  1 ARE EQUILIBRIUM ITERATIONS.

 TIME INCREMENT COMPLETED  1.092E-03,  FRACTION OF STEP COMPLETED  1.419E-05
 STEP TIME COMPLETED       3.059E-03,  TOTAL TIME COMPLETED        3.059E-03


  INCREMENT     7 STARTS. ATTEMPT NUMBER  1, TIME INCREMENT  1.637E-03
 
	SYMMETRIC DIRECT SPARSE SOLVER RUNNING ON
 	1 HOST:        1 MPI RANK  x 1 THREAD
 	NUMBER OF EQUATIONS:     18
 	NUMBER OF RHS:           1
 	NUMBER OF FLOPS:         2.109e+03

     CHECK POINT  START OF SOLVER     

     CHECK POINT  END OF SOLVER       

       ELAPSED USER TIME (SEC)      =   0.0000    
       ELAPSED SYSTEM TIME (SEC)    =   0.0000    
       ELAPSED TOTAL CPU TIME (SEC) =   0.0000    
       ELAPSED WALLCLOCK TIME (SEC) =            0

               CONVERGENCE CHECKS FOR EQUILIBRIUM ITERATION     1


 AVERAGE FORCE                      4.096E-04   TIME AVG. FORCE       1.522E-04
 LARGEST SCALED RESIDUAL FORCE     -4.271E-20   AT NODE          1   DOF  1
  CORRESPONDING RESIDUAL FORCE     -4.271E-20
 LARGEST INCREMENT OF DISP.         7.594E-08   AT NODE          1   DOF  2
 LARGEST CORRECTION TO DISP.        1.874E-14   AT NODE          2   DOF  1
          THE FORCE     EQUILIBRIUM RESPONSE WAS LINEAR IN THIS INCREMENT
          TIME INCREMENT MAY NOW INCREASE TO    2.456E-03

 ITERATION SUMMARY FOR THE INCREMENT:   1 TOTAL ITERATIONS, OF WHICH
   0 ARE SEVERE DISCONTINUITY ITERATIONS AND  1 ARE EQUILIBRIUM ITERATIONS.

 TIME INCREMENT COMPLETED  1.637E-03,  FRACTION OF STEP COMPLETED  2.178E-05
 STEP TIME COMPLETED       4.696E-03,  TOTAL TIME COMPLETED        4.696E-03


  INCREMENT     8 STARTS. ATTEMPT NUMBER  1, TIME INCREMENT  2.456E-03
 
	SYMMETRIC DIRECT SPARSE SOLVER RUNNING ON
 	1 HOST:        1 MPI RANK  x 1 THREAD
 	NUMBER OF EQUATIONS:     18
 	NUMBER OF RHS:           1
 	NUMBER OF FLOPS:         2.109e+03

     CHECK POINT  START OF SOLVER     

     CHECK POINT  END OF SOLVER       

       ELAPSED USER TIME (SEC)      =   0.0000    
       ELAPSED SYSTEM TIME (SEC)    =   0.0000    
       ELAPSED TOTAL CPU TIME (SEC) =   0.0000    
       ELAPSED WALLCLOCK TIME (SEC) =            0

               CONVERGENCE CHECKS FOR EQUILIBRIUM ITERATION     1


 AVERAGE FORCE                      6.238E-04   TIME AVG. FORCE       2.112E-04
 LARGEST SCALED RESIDUAL FORCE     -4.728E-20   AT NODE          2   DOF  3
  CORRESPONDING RESIDUAL FORCE     -4.728E-20
 LARGEST INCREMENT OF DISP.         1.139E-07   AT NODE          1   DOF  2
 LARGEST CORRECTION TO DISP.        4.217E-14   AT NODE          2   DOF  3
          THE FORCE     EQUILIBRIUM RESPONSE WAS LINEAR IN THIS INCREMENT
          TIME INCREMENT MAY NOW INCREASE TO    3.684E-03

 ITERATION SUMMARY FOR THE INCREMENT:   1 TOTAL ITERATIONS, OF WHICH
   0 ARE SEVERE DISCONTINUITY ITERATIONS AND  1 ARE EQUILIBRIUM ITERATIONS.

 TIME INCREMENT COMPLETED  2.456E-03,  FRACTION OF STEP COMPLETED  3.317E-05
 STEP TIME COMPLETED       7.153E-03,  TOTAL TIME COMPLETED        7.153E-03


  INCREMENT     9 STARTS. ATTEMPT NUMBER  1, TIME INCREMENT  3.684E-03
 
	SYMMETRIC DIRECT SPARSE SOLVER RUNNING ON
 	1 HOST:        1 MPI RANK  x 1 THREAD
 	NUMBER OF EQUATIONS:     18
 	NUMBER OF RHS:           1
 	NUMBER OF FLOPS:         2.109e+03

     CHECK POINT  START OF SOLVER     

     CHECK POINT  END OF SOLVER       

       ELAPSED USER TIME (SEC)      =   0.0000    
       ELAPSED SYSTEM TIME (SEC)    =   0.0000    
       ELAPSED TOTAL CPU TIME (SEC) =   0.0000    
       ELAPSED WALLCLOCK TIME (SEC) =            0

               CONVERGENCE CHECKS FOR EQUILIBRIUM ITERATION     1


 AVERAGE FORCE                      9.450E-04   TIME AVG. FORCE       2.927E-04
 LARGEST SCALED RESIDUAL FORCE     -1.538E-19   AT NODE          6   DOF  3
  CORRESPONDING RESIDUAL FORCE     -1.538E-19
 LARGEST INCREMENT OF DISP.         1.709E-07   AT NODE          1   DOF  2
 LARGEST CORRECTION TO DISP.        9.488E-14   AT NODE          3   DOF  1
          THE FORCE     EQUILIBRIUM RESPONSE WAS LINEAR IN THIS INCREMENT
          TIME INCREMENT MAY NOW INCREASE TO    5.526E-03

 ITERATION SUMMARY FOR THE INCREMENT:   1 TOTAL ITERATIONS, OF WHICH
   0 ARE SEVERE DISCONTINUITY ITERATIONS AND  1 ARE EQUILIBRIUM ITERATIONS.

 TIME INCREMENT COMPLETED  3.684E-03,  FRACTION OF STEP COMPLETED  5.026E-05
 STEP TIME COMPLETED       1.084E-02,  TOTAL TIME COMPLETED        1.084E-02


  INCREMENT    10 STARTS. ATTEMPT NUMBER  1, TIME INCREMENT  5.526E-03
 
	SYMMETRIC DIRECT SPARSE SOLVER RUNNING ON
 	1 HOST:        1 MPI RANK  x 1 THREAD
 	NUMBER OF EQUATIONS:     18
 	NUMBER OF RHS:           1
 	NUMBER OF FLOPS:         2.109e+03

     CHECK POINT  START OF SOLVER     

     CHECK POINT  END OF SOLVER       

       ELAPSED USER TIME (SEC)      =   0.0000    
       ELAPSED SYSTEM TIME (SEC)    =   0.0000    
       ELAPSED TOTAL CPU TIME (SEC) =   0.0000    
       ELAPSED WALLCLOCK TIME (SEC) =            0

               CONVERGENCE CHECKS FOR EQUILIBRIUM ITERATION     1


 AVERAGE FORCE                      1.427E-03   TIME AVG. FORCE       4.061E-04
 LARGEST SCALED RESIDUAL FORCE     -1.653E-19   AT NODE          6   DOF  3
  CORRESPONDING RESIDUAL FORCE     -1.653E-19
 LARGEST INCREMENT OF DISP.         2.563E-07   AT NODE          1   DOF  2
 LARGEST CORRECTION TO DISP.        2.135E-13   AT NODE          2   DOF  1
          THE FORCE     EQUILIBRIUM RESPONSE WAS LINEAR IN THIS INCREMENT
          TIME INCREMENT MAY NOW INCREASE TO    8.289E-03

 ITERATION SUMMARY FOR THE INCREMENT:   1 TOTAL ITERATIONS, OF WHICH
   0 ARE SEVERE DISCONTINUITY ITERATIONS AND  1 ARE EQUILIBRIUM ITERATIONS.

 TIME INCREMENT COMPLETED  5.526E-03,  FRACTION OF STEP COMPLETED  7.589E-05
 STEP TIME COMPLETED       1.636E-02,  TOTAL TIME COMPLETED        1.636E-02


  INCREMENT    11 STARTS. ATTEMPT NUMBER  1, TIME INCREMENT  8.289E-03
 
	SYMMETRIC DIRECT SPARSE SOLVER RUNNING ON
 	1 HOST:        1 MPI RANK  x 1 THREAD
 	NUMBER OF EQUATIONS:     18
 	NUMBER OF RHS:           1
 	NUMBER OF FLOPS:         2.109e+03

     CHECK POINT  START OF SOLVER     

     CHECK POINT  END OF SOLVER       

       ELAPSED USER TIME (SEC)      =   0.0000    
       ELAPSED SYSTEM TIME (SEC)    =   0.0000    
       ELAPSED TOTAL CPU TIME (SEC) =   0.0000    
       ELAPSED WALLCLOCK TIME (SEC) =            0

               CONVERGENCE CHECKS FOR EQUILIBRIUM ITERATION     1


 AVERAGE FORCE                      2.150E-03   TIME AVG. FORCE       5.647E-04
 LARGEST SCALED RESIDUAL FORCE     -1.947E-19   AT NODE          1   DOF  1
  CORRESPONDING RESIDUAL FORCE     -1.947E-19
 LARGEST INCREMENT OF DISP.         3.844E-07   AT NODE          1   DOF  2
 LARGEST CORRECTION TO DISP.        4.803E-13   AT NODE          3   DOF  1
          THE FORCE     EQUILIBRIUM RESPONSE WAS LINEAR IN THIS INCREMENT
          TIME INCREMENT MAY NOW INCREASE TO    1.243E-02

 ITERATION SUMMARY FOR THE INCREMENT:   1 TOTAL ITERATIONS, OF WHICH
   0 ARE SEVERE DISCONTINUITY ITERATIONS AND  1 ARE EQUILIBRIUM ITERATIONS.

 TIME INCREMENT COMPLETED  8.289E-03,  FRACTION OF STEP COMPLETED  1.143E-04
 STEP TIME COMPLETED       2.465E-02,  TOTAL TIME COMPLETED        2.465E-02


  INCREMENT    12 STARTS. ATTEMPT NUMBER  1, TIME INCREMENT  1.243E-02
 
	SYMMETRIC DIRECT SPARSE SOLVER RUNNING ON
 	1 HOST:        1 MPI RANK  x 1 THREAD
 	NUMBER OF EQUATIONS:     18
 	NUMBER OF RHS:           1
 	NUMBER OF FLOPS:         2.109e+03

     CHECK POINT  START OF SOLVER     

     CHECK POINT  END OF SOLVER       

       ELAPSED USER TIME (SEC)      =   0.0000    
       ELAPSED SYSTEM TIME (SEC)    =   0.0000    
       ELAPSED TOTAL CPU TIME (SEC) =   0.0000    
       ELAPSED WALLCLOCK TIME (SEC) =            0

               CONVERGENCE CHECKS FOR EQUILIBRIUM ITERATION     1


 AVERAGE FORCE                      3.234E-03   TIME AVG. FORCE       7.871E-04
 LARGEST SCALED RESIDUAL FORCE     -3.865E-19   AT NODE          2   DOF  1
  CORRESPONDING RESIDUAL FORCE     -3.865E-19
 LARGEST INCREMENT OF DISP.         5.767E-07   AT NODE          1   DOF  2
 LARGEST CORRECTION TO DISP.        1.081E-12   AT NODE          4   DOF  1
          THE FORCE     EQUILIBRIUM RESPONSE WAS LINEAR IN THIS INCREMENT
          TIME INCREMENT MAY NOW INCREASE TO    1.865E-02

 ITERATION SUMMARY FOR THE INCREMENT:   1 TOTAL ITERATIONS, OF WHICH
   0 ARE SEVERE DISCONTINUITY ITERATIONS AND  1 ARE EQUILIBRIUM ITERATIONS.

 TIME INCREMENT COMPLETED  1.243E-02,  FRACTION OF STEP COMPLETED  1.720E-04
 STEP TIME COMPLETED       3.709E-02,  TOTAL TIME COMPLETED        3.709E-02


  INCREMENT    13 STARTS. ATTEMPT NUMBER  1, TIME INCREMENT  1.865E-02
 
	SYMMETRIC DIRECT SPARSE SOLVER RUNNING ON
 	1 HOST:        1 MPI RANK  x 1 THREAD
 	NUMBER OF EQUATIONS:     18
 	NUMBER OF RHS:           1
 	NUMBER OF FLOPS:         2.109e+03

     CHECK POINT  START OF SOLVER     

     CHECK POINT  END OF SOLVER       

       ELAPSED USER TIME (SEC)      =   0.0000    
       ELAPSED SYSTEM TIME (SEC)    =   0.0000    
       ELAPSED TOTAL CPU TIME (SEC) =   0.0000    
       ELAPSED WALLCLOCK TIME (SEC) =            0

               CONVERGENCE CHECKS FOR EQUILIBRIUM ITERATION     1


 AVERAGE FORCE                      4.860E-03   TIME AVG. FORCE       1.100E-03
 LARGEST SCALED RESIDUAL FORCE     -6.942E-19   AT NODE          1   DOF  1
  CORRESPONDING RESIDUAL FORCE     -6.942E-19
 LARGEST INCREMENT OF DISP.         8.650E-07   AT NODE          1   DOF  2
 LARGEST CORRECTION TO DISP.        2.431E-12   AT NODE          3   DOF  1
          THE FORCE     EQUILIBRIUM RESPONSE WAS LINEAR IN THIS INCREMENT
          TIME INCREMENT MAY NOW INCREASE TO    2.798E-02

 ITERATION SUMMARY FOR THE INCREMENT:   1 TOTAL ITERATIONS, OF WHICH
   0 ARE SEVERE DISCONTINUITY ITERATIONS AND  1 ARE EQUILIBRIUM ITERATIONS.

 TIME INCREMENT COMPLETED  1.865E-02,  FRACTION OF STEP COMPLETED  2.585E-04
 STEP TIME COMPLETED       5.574E-02,  TOTAL TIME COMPLETED        5.574E-02


  INCREMENT    14 STARTS. ATTEMPT NUMBER  1, TIME INCREMENT  2.798E-02
 
	SYMMETRIC DIRECT SPARSE SOLVER RUNNING ON
 	1 HOST:        1 MPI RANK  x 1 THREAD
 	NUMBER OF EQUATIONS:     18
 	NUMBER OF RHS:           1
 	NUMBER OF FLOPS:         2.109e+03

     CHECK POINT  START OF SOLVER     

     CHECK POINT  END OF SOLVER       

       ELAPSED USER TIME (SEC)      =   0.0000    
       ELAPSED SYSTEM TIME (SEC)    =   0.0000    
       ELAPSED TOTAL CPU TIME (SEC) =   0.0000    
       ELAPSED WALLCLOCK TIME (SEC) =            0

               CONVERGENCE CHECKS FOR EQUILIBRIUM ITERATION     1


 AVERAGE FORCE                      7.300E-03   TIME AVG. FORCE       1.543E-03
 LARGEST SCALED RESIDUAL FORCE      2.385E-18   AT NODE          3   DOF  1
  CORRESPONDING RESIDUAL FORCE      2.385E-18
 LARGEST INCREMENT OF DISP.         1.297E-06   AT NODE          1   DOF  2
 LARGEST CORRECTION TO DISP.        5.471E-12   AT NODE          5   DOF  3
          THE FORCE     EQUILIBRIUM RESPONSE WAS LINEAR IN THIS INCREMENT
          TIME INCREMENT MAY NOW INCREASE TO    4.196E-02

 ITERATION SUMMARY FOR THE INCREMENT:   1 TOTAL ITERATIONS, OF WHICH
   0 ARE SEVERE DISCONTINUITY ITERATIONS AND  1 ARE EQUILIBRIUM ITERATIONS.

 TIME INCREMENT COMPLETED  2.798E-02,  FRACTION OF STEP COMPLETED  3.882E-04
 STEP TIME COMPLETED       8.371E-02,  TOTAL TIME COMPLETED        8.371E-02


  INCREMENT    15 STARTS. ATTEMPT NUMBER  1, TIME INCREMENT  4.196E-02
 
	SYMMETRIC DIRECT SPARSE SOLVER RUNNING ON
 	1 HOST:        1 MPI RANK  x 1 THREAD
 	NUMBER OF EQUATIONS:     18
 	NUMBER OF RHS:           1
 	NUMBER OF FLOPS:         2.109e+03

     CHECK POINT  START OF SOLVER     

     CHECK POINT  END OF SOLVER       

       ELAPSED USER TIME (SEC)      =   0.0000    
       ELAPSED SYSTEM TIME (SEC)    =   0.0000    
       ELAPSED TOTAL CPU TIME (SEC) =   0.0000    
       ELAPSED WALLCLOCK TIME (SEC) =            0

               CONVERGENCE CHECKS FOR EQUILIBRIUM ITERATION     1


 AVERAGE FORCE                      1.096E-02   TIME AVG. FORCE       2.171E-03
 LARGEST SCALED RESIDUAL FORCE      4.781E-18   AT NODE          3   DOF  1
  CORRESPONDING RESIDUAL FORCE      4.781E-18
 LARGEST INCREMENT OF DISP.         1.946E-06   AT NODE          1   DOF  2
 LARGEST CORRECTION TO DISP.        1.231E-11   AT NODE          3   DOF  1
          THE FORCE     EQUILIBRIUM RESPONSE WAS LINEAR IN THIS INCREMENT
          TIME INCREMENT MAY NOW INCREASE TO    6.295E-02

 ITERATION SUMMARY FOR THE INCREMENT:   1 TOTAL ITERATIONS, OF WHICH
   0 ARE SEVERE DISCONTINUITY ITERATIONS AND  1 ARE EQUILIBRIUM ITERATIONS.

 TIME INCREMENT COMPLETED  4.196E-02,  FRACTION OF STEP COMPLETED  5.829E-04
 STEP TIME COMPLETED       0.126    ,  TOTAL TIME COMPLETED        0.126    


  INCREMENT    16 STARTS. ATTEMPT NUMBER  1, TIME INCREMENT  6.295E-02
 
	SYMMETRIC DIRECT SPARSE SOLVER RUNNING ON
 	1 HOST:        1 MPI RANK  x 1 THREAD
 	NUMBER OF EQUATIONS:     18
 	NUMBER OF RHS:           1
 	NUMBER OF FLOPS:         2.109e+03

     CHECK POINT  START OF SOLVER     

     CHECK POINT  END OF SOLVER       

       ELAPSED USER TIME (SEC)      =   0.0000    
       ELAPSED SYSTEM TIME (SEC)    =   0.0000    
       ELAPSED TOTAL CPU TIME (SEC) =   0.0000    
       ELAPSED WALLCLOCK TIME (SEC) =            0

               CONVERGENCE CHECKS FOR EQUILIBRIUM ITERATION     1


 AVERAGE FORCE                      1.645E-02   TIME AVG. FORCE       3.063E-03
 LARGEST SCALED RESIDUAL FORCE      1.729E-17   AT NODE          1   DOF  1
  CORRESPONDING RESIDUAL FORCE      1.729E-17
 LARGEST INCREMENT OF DISP.         2.919E-06   AT NODE          1   DOF  2
 LARGEST CORRECTION TO DISP.        2.769E-11   AT NODE          5   DOF  3
          THE FORCE     EQUILIBRIUM RESPONSE WAS LINEAR IN THIS INCREMENT
          TIME INCREMENT MAY NOW INCREASE TO    9.442E-02

 ITERATION SUMMARY FOR THE INCREMENT:   1 TOTAL ITERATIONS, OF WHICH
   0 ARE SEVERE DISCONTINUITY ITERATIONS AND  1 ARE EQUILIBRIUM ITERATIONS.

 TIME INCREMENT COMPLETED  6.295E-02,  FRACTION OF STEP COMPLETED  8.748E-04
 STEP TIME COMPLETED       0.189    ,  TOTAL TIME COMPLETED        0.189    


  INCREMENT    17 STARTS. ATTEMPT NUMBER  1, TIME INCREMENT  9.442E-02
 
	SYMMETRIC DIRECT SPARSE SOLVER RUNNING ON
 	1 HOST:        1 MPI RANK  x 1 THREAD
 	NUMBER OF EQUATIONS:     18
 	NUMBER OF RHS:           1
 	NUMBER OF FLOPS:         2.109e+03

     CHECK POINT  START OF SOLVER     

     CHECK POINT  END OF SOLVER       

       ELAPSED USER TIME (SEC)      =   0.0000    
       ELAPSED SYSTEM TIME (SEC)    =   0.0000    
       ELAPSED TOTAL CPU TIME (SEC) =   0.0000    
       ELAPSED WALLCLOCK TIME (SEC) =            0

               CONVERGENCE CHECKS FOR EQUILIBRIUM ITERATION     1


 AVERAGE FORCE                      2.468E-02   TIME AVG. FORCE       4.335E-03
 LARGEST SCALED RESIDUAL FORCE      7.923E-17   AT NODE          1   DOF  3
  CORRESPONDING RESIDUAL FORCE      7.923E-17
 LARGEST INCREMENT OF DISP.         4.379E-06   AT NODE          1   DOF  2
 LARGEST CORRECTION TO DISP.        6.231E-11   AT NODE          1   DOF  1
          THE FORCE     EQUILIBRIUM RESPONSE WAS LINEAR IN THIS INCREMENT
          TIME INCREMENT MAY NOW INCREASE TO    0.142    

 ITERATION SUMMARY FOR THE INCREMENT:   1 TOTAL ITERATIONS, OF WHICH
   0 ARE SEVERE DISCONTINUITY ITERATIONS AND  1 ARE EQUILIBRIUM ITERATIONS.

 TIME INCREMENT COMPLETED  9.442E-02,  FRACTION OF STEP COMPLETED  1.313E-03
 STEP TIME COMPLETED       0.283    ,  TOTAL TIME COMPLETED        0.283    


  INCREMENT    18 STARTS. ATTEMPT NUMBER  1, TIME INCREMENT  0.142    
 
	SYMMETRIC DIRECT SPARSE SOLVER RUNNING ON
 	1 HOST:        1 MPI RANK  x 1 THREAD
 	NUMBER OF EQUATIONS:     18
 	NUMBER OF RHS:           1
 	NUMBER OF FLOPS:         2.109e+03

     CHECK POINT  START OF SOLVER     

     CHECK POINT  END OF SOLVER       

       ELAPSED USER TIME (SEC)      =   0.0000    
       ELAPSED SYSTEM TIME (SEC)    =   0.0000    
       ELAPSED TOTAL CPU TIME (SEC) =   0.0000    
       ELAPSED WALLCLOCK TIME (SEC) =            0

               CONVERGENCE CHECKS FOR EQUILIBRIUM ITERATION     1


 AVERAGE FORCE                      3.703E-02   TIME AVG. FORCE       6.151E-03
 LARGEST SCALED RESIDUAL FORCE      4.144E-16   AT NODE          2   DOF  1
  CORRESPONDING RESIDUAL FORCE      4.144E-16
 LARGEST INCREMENT OF DISP.         6.568E-06   AT NODE          1   DOF  2
 LARGEST CORRECTION TO DISP.        1.402E-10   AT NODE          1   DOF  3
          THE FORCE     EQUILIBRIUM RESPONSE WAS LINEAR IN THIS INCREMENT
          TIME INCREMENT MAY NOW INCREASE TO    0.212    

 ITERATION SUMMARY FOR THE INCREMENT:   1 TOTAL ITERATIONS, OF WHICH
   0 ARE SEVERE DISCONTINUITY ITERATIONS AND  1 ARE EQUILIBRIUM ITERATIONS.

 TIME INCREMENT COMPLETED  0.142    ,  FRACTION OF STEP COMPLETED  1.970E-03
 STEP TIME COMPLETED       0.425    ,  TOTAL TIME COMPLETED        0.425    


  INCREMENT    19 STARTS. ATTEMPT NUMBER  1, TIME INCREMENT  0.212    
 
	SYMMETRIC DIRECT SPARSE SOLVER RUNNING ON
 	1 HOST:        1 MPI RANK  x 1 THREAD
 	NUMBER OF EQUATIONS:     18
 	NUMBER OF RHS:           1
 	NUMBER OF FLOPS:         2.109e+03

     CHECK POINT  START OF SOLVER     

     CHECK POINT  END OF SOLVER       

       ELAPSED USER TIME (SEC)      =   0.0000    
       ELAPSED SYSTEM TIME (SEC)    =   0.0000    
       ELAPSED TOTAL CPU TIME (SEC) =   0.0000    
       ELAPSED WALLCLOCK TIME (SEC) =            0

               CONVERGENCE CHECKS FOR EQUILIBRIUM ITERATION     1


 AVERAGE FORCE                      5.554E-02   TIME AVG. FORCE       8.751E-03
 LARGEST SCALED RESIDUAL FORCE      2.051E-15   AT NODE          1   DOF  1
  CORRESPONDING RESIDUAL FORCE      2.051E-15
 LARGEST INCREMENT OF DISP.         9.853E-06   AT NODE          1   DOF  2
 LARGEST CORRECTION TO DISP.        3.153E-10   AT NODE          2   DOF  1
          THE FORCE     EQUILIBRIUM RESPONSE WAS LINEAR IN THIS INCREMENT
          TIME INCREMENT MAY NOW INCREASE TO    0.319    

 ITERATION SUMMARY FOR THE INCREMENT:   1 TOTAL ITERATIONS, OF WHICH
   0 ARE SEVERE DISCONTINUITY ITERATIONS AND  1 ARE EQUILIBRIUM ITERATIONS.

 TIME INCREMENT COMPLETED  0.212    ,  FRACTION OF STEP COMPLETED  2.955E-03
 STEP TIME COMPLETED       0.637    ,  TOTAL TIME COMPLETED        0.637    


  INCREMENT    20 STARTS. ATTEMPT NUMBER  1, TIME INCREMENT  0.319    
 
	SYMMETRIC DIRECT SPARSE SOLVER RUNNING ON
 	1 HOST:        1 MPI RANK  x 1 THREAD
 	NUMBER OF EQUATIONS:     18
 	NUMBER OF RHS:           1
 	NUMBER OF FLOPS:         2.109e+03

     CHECK POINT  START OF SOLVER     

     CHECK POINT  END OF SOLVER       

       ELAPSED USER TIME (SEC)      =   0.0000    
       ELAPSED SYSTEM TIME (SEC)    =   0.0000    
       ELAPSED TOTAL CPU TIME (SEC) =   0.0000    
       ELAPSED WALLCLOCK TIME (SEC) =            0

               CONVERGENCE CHECKS FOR EQUILIBRIUM ITERATION     1


 AVERAGE FORCE                      8.331E-02   TIME AVG. FORCE       1.248E-02
 LARGEST SCALED RESIDUAL FORCE      1.036E-14   AT NODE          1   DOF  1
  CORRESPONDING RESIDUAL FORCE      1.036E-14
 LARGEST INCREMENT OF DISP.         1.478E-05   AT NODE          1   DOF  2
 LARGEST CORRECTION TO DISP.        7.093E-10   AT NODE          5   DOF  3
          THE FORCE     EQUILIBRIUM RESPONSE WAS LINEAR IN THIS INCREMENT
          TIME INCREMENT MAY NOW INCREASE TO    0.478    

 ITERATION SUMMARY FOR THE INCREMENT:   1 TOTAL ITERATIONS, OF WHICH
   0 ARE SEVERE DISCONTINUITY ITERATIONS AND  1 ARE EQUILIBRIUM ITERATIONS.

 TIME INCREMENT COMPLETED  0.319    ,  FRACTION OF STEP COMPLETED  4.433E-03
 STEP TIME COMPLETED       0.956    ,  TOTAL TIME COMPLETED        0.956    


  INCREMENT    21 STARTS. ATTEMPT NUMBER  1, TIME INCREMENT  0.478    
 
	SYMMETRIC DIRECT SPARSE SOLVER RUNNING ON
 	1 HOST:        1 MPI RANK  x 1 THREAD
 	NUMBER OF EQUATIONS:     18
 	NUMBER OF RHS:           1
 	NUMBER OF FLOPS:         2.109e+03

     CHECK POINT  START OF SOLVER     

     CHECK POINT  END OF SOLVER       

       ELAPSED USER TIME (SEC)      =   0.0000    
       ELAPSED SYSTEM TIME (SEC)    =   0.0000    
       ELAPSED TOTAL CPU TIME (SEC) =   0.0000    
       ELAPSED WALLCLOCK TIME (SEC) =            0

               CONVERGENCE CHECKS FOR EQUILIBRIUM ITERATION     1


 AVERAGE FORCE                      0.125       TIME AVG. FORCE       1.783E-02
 LARGEST SCALED RESIDUAL FORCE      5.243E-14   AT NODE          5   DOF  3
  CORRESPONDING RESIDUAL FORCE      5.243E-14
 LARGEST INCREMENT OF DISP.         2.217E-05   AT NODE          1   DOF  2
 LARGEST CORRECTION TO DISP.        1.595E-09   AT NODE          2   DOF  1
          THE FORCE     EQUILIBRIUM RESPONSE WAS LINEAR IN THIS INCREMENT
          TIME INCREMENT MAY NOW INCREASE TO    0.717    

 ITERATION SUMMARY FOR THE INCREMENT:   1 TOTAL ITERATIONS, OF WHICH
   0 ARE SEVERE DISCONTINUITY ITERATIONS AND  1 ARE EQUILIBRIUM ITERATIONS.

 TIME INCREMENT COMPLETED  0.478    ,  FRACTION OF STEP COMPLETED  6.650E-03
 STEP TIME COMPLETED        1.43    ,  TOTAL TIME COMPLETED         1.43    


  INCREMENT    22 STARTS. ATTEMPT NUMBER  1, TIME INCREMENT  0.717    
 
	SYMMETRIC DIRECT SPARSE SOLVER RUNNING ON
 	1 HOST:        1 MPI RANK  x 1 THREAD
 	NUMBER OF EQUATIONS:     18
 	NUMBER OF RHS:           1
 	NUMBER OF FLOPS:         2.109e+03

     CHECK POINT  START OF SOLVER     

     CHECK POINT  END OF SOLVER       

       ELAPSED USER TIME (SEC)      =   0.0000    
       ELAPSED SYSTEM TIME (SEC)    =   0.0000    
       ELAPSED TOTAL CPU TIME (SEC) =   0.0000    
       ELAPSED WALLCLOCK TIME (SEC) =            0

               CONVERGENCE CHECKS FOR EQUILIBRIUM ITERATION     1


 AVERAGE FORCE                      0.187       TIME AVG. FORCE       2.554E-02
 LARGEST SCALED RESIDUAL FORCE      2.653E-13   AT NODE          6   DOF  3
  CORRESPONDING RESIDUAL FORCE      2.653E-13
 LARGEST INCREMENT OF DISP.         3.325E-05   AT NODE          1   DOF  2
 LARGEST CORRECTION TO DISP.        3.588E-09   AT NODE          1   DOF  1
          THE FORCE     EQUILIBRIUM RESPONSE WAS LINEAR IN THIS INCREMENT
          TIME INCREMENT MAY NOW INCREASE TO     1.08    

 ITERATION SUMMARY FOR THE INCREMENT:   1 TOTAL ITERATIONS, OF WHICH
   0 ARE SEVERE DISCONTINUITY ITERATIONS AND  1 ARE EQUILIBRIUM ITERATIONS.

 TIME INCREMENT COMPLETED  0.717    ,  FRACTION OF STEP COMPLETED  9.975E-03
 STEP TIME COMPLETED        2.15    ,  TOTAL TIME COMPLETED         2.15    


  INCREMENT    23 STARTS. ATTEMPT NUMBER  1, TIME INCREMENT   1.08    
 
	SYMMETRIC DIRECT SPARSE SOLVER RUNNING ON
 	1 HOST:        1 MPI RANK  x 1 THREAD
 	NUMBER OF EQUATIONS:     18
 	NUMBER OF RHS:           1
 	NUMBER OF FLOPS:         2.109e+03

     CHECK POINT  START OF SOLVER     

     CHECK POINT  END OF SOLVER       

       ELAPSED USER TIME (SEC)      =   0.0000    
       ELAPSED SYSTEM TIME (SEC)    =   0.0000    
       ELAPSED TOTAL CPU TIME (SEC) =   0.0000    
       ELAPSED WALLCLOCK TIME (SEC) =            0

               CONVERGENCE CHECKS FOR EQUILIBRIUM ITERATION     1


 AVERAGE FORCE                      0.373       TIME AVG. FORCE       4.067E-02
 LARGEST SCALED RESIDUAL FORCE     -0.130       AT NODE          5   DOF  3
  CORRESPONDING RESIDUAL FORCE     -0.130    
 LARGEST INCREMENT OF DISP.         5.010E-04   AT NODE          1   DOF  2
 LARGEST CORRECTION TO DISP.        4.512E-04   AT NODE          1   DOF  2
          FORCE     EQUILIBRIUM NOT ACHIEVED WITHIN TOLERANCE.
 
	SYMMETRIC DIRECT SPARSE SOLVER RUNNING ON
 	1 HOST:        1 MPI RANK  x 1 THREAD
 	NUMBER OF EQUATIONS:     18
 	NUMBER OF RHS:           1
 	NUMBER OF FLOPS:         2.109e+03

     CHECK POINT  START OF SOLVER     

     CHECK POINT  END OF SOLVER       

       ELAPSED USER TIME (SEC)      =   0.0000    
       ELAPSED SYSTEM TIME (SEC)    =   0.0000    
       ELAPSED TOTAL CPU TIME (SEC) =   0.0000    
       ELAPSED WALLCLOCK TIME (SEC) =            0

               CONVERGENCE CHECKS FOR EQUILIBRIUM ITERATION     2


 AVERAGE FORCE                      0.263       TIME AVG. FORCE       3.585E-02
 LARGEST SCALED RESIDUAL FORCE     -3.912E-04   AT NODE          1   DOF  1
  CORRESPONDING RESIDUAL FORCE     -3.912E-04
 LARGEST INCREMENT OF DISP.         5.010E-04   AT NODE          1   DOF  2
 LARGEST CORRECTION TO DISP.       -5.345E-05   AT NODE          2   DOF  3
          FORCE     EQUILIBRIUM NOT ACHIEVED WITHIN TOLERANCE.
 
	SYMMETRIC DIRECT SPARSE SOLVER RUNNING ON
 	1 HOST:        1 MPI RANK  x 1 THREAD
 	NUMBER OF EQUATIONS:     18
 	NUMBER OF RHS:           1
 	NUMBER OF FLOPS:         2.109e+03

     CHECK POINT  START OF SOLVER     

     CHECK POINT  END OF SOLVER       

       ELAPSED USER TIME (SEC)      =   0.0000    
       ELAPSED SYSTEM TIME (SEC)    =   0.0000    
       ELAPSED TOTAL CPU TIME (SEC) =   0.0000    
       ELAPSED WALLCLOCK TIME (SEC) =            0

               CONVERGENCE CHECKS FOR EQUILIBRIUM ITERATION     3


 AVERAGE FORCE                      0.315       TIME AVG. FORCE       3.813E-02
 LARGEST SCALED RESIDUAL FORCE      6.433E-07   AT NODE          4   DOF  1
  CORRESPONDING RESIDUAL FORCE      6.433E-07
 LARGEST INCREMENT OF DISP.         5.010E-04   AT NODE          1   DOF  2
 LARGEST CORRECTION TO DISP.       -3.514E-07   AT NODE          3   DOF  1
          THE FORCE     EQUILIBRIUM EQUATIONS HAVE CONVERGED
          TIME INCREMENT MAY NOW INCREASE TO     1.61    

 ITERATION SUMMARY FOR THE INCREMENT:   3 TOTAL ITERATIONS, OF WHICH
   0 ARE SEVERE DISCONTINUITY ITERATIONS AND  3 ARE EQUILIBRIUM ITERATIONS.

 TIME INCREMENT COMPLETED   1.08    ,  FRACTION OF STEP COMPLETED  1.496E-02
 STEP TIME COMPLETED        3.23    ,  TOTAL TIME COMPLETED         3.23    


  INCREMENT    24 STARTS. ATTEMPT NUMBER  1, TIME INCREMENT   1.61    
 
	SYMMETRIC DIRECT SPARSE SOLVER RUNNING ON
 	1 HOST:        1 MPI RANK  x 1 THREAD
 	NUMBER OF EQUATIONS:     18
 	NUMBER OF RHS:           1
 	NUMBER OF FLOPS:         2.109e+03

     CHECK POINT  START OF SOLVER     

     CHECK POINT  END OF SOLVER       

       ELAPSED USER TIME (SEC)      =   0.0000    
       ELAPSED SYSTEM TIME (SEC)    =   0.0000    
       ELAPSED TOTAL CPU TIME (SEC) =   0.0000    
       ELAPSED WALLCLOCK TIME (SEC) =            0

               CONVERGENCE CHECKS FOR EQUILIBRIUM ITERATION     1


 AVERAGE FORCE                      0.280       TIME AVG. FORCE       4.819E-02
 LARGEST SCALED RESIDUAL FORCE     -3.191E-03   AT NODE          1   DOF  1
  CORRESPONDING RESIDUAL FORCE     -3.191E-03
 LARGEST INCREMENT OF DISP.         7.550E-04   AT NODE          1   DOF  2
 LARGEST CORRECTION TO DISP.       -1.581E-04   AT NODE          3   DOF  1
          FORCE     EQUILIBRIUM NOT ACHIEVED WITHIN TOLERANCE.
 
	SYMMETRIC DIRECT SPARSE SOLVER RUNNING ON
 	1 HOST:        1 MPI RANK  x 1 THREAD
 	NUMBER OF EQUATIONS:     18
 	NUMBER OF RHS:           1
 	NUMBER OF FLOPS:         2.109e+03

     CHECK POINT  START OF SOLVER     

     CHECK POINT  END OF SOLVER       

       ELAPSED USER TIME (SEC)      =   0.0000    
       ELAPSED SYSTEM TIME (SEC)    =   0.0000    
       ELAPSED TOTAL CPU TIME (SEC) =   0.0000    
       ELAPSED WALLCLOCK TIME (SEC) =            0

               CONVERGENCE CHECKS FOR EQUILIBRIUM ITERATION     2


 AVERAGE FORCE                      0.304       TIME AVG. FORCE       4.922E-02
 LARGEST SCALED RESIDUAL FORCE     -4.759E-06   AT NODE          1   DOF  1
  CORRESPONDING RESIDUAL FORCE     -4.759E-06
 LARGEST INCREMENT OF DISP.         7.550E-04   AT NODE          1   DOF  2
 LARGEST CORRECTION TO DISP.       -4.978E-06   AT NODE          3   DOF  1
          THE FORCE     EQUILIBRIUM EQUATIONS HAVE CONVERGED
          TIME INCREMENT MAY NOW INCREASE TO     2.16    

 ITERATION SUMMARY FOR THE INCREMENT:   2 TOTAL ITERATIONS, OF WHICH
   0 ARE SEVERE DISCONTINUITY ITERATIONS AND  2 ARE EQUILIBRIUM ITERATIONS.

 TIME INCREMENT COMPLETED   1.61    ,  FRACTION OF STEP COMPLETED  2.244E-02
 STEP TIME COMPLETED        4.84    ,  TOTAL TIME COMPLETED         4.84    


  INCREMENT    25 STARTS. ATTEMPT NUMBER  1, TIME INCREMENT   2.16    
 
	SYMMETRIC DIRECT SPARSE SOLVER RUNNING ON
 	1 HOST:        1 MPI RANK  x 1 THREAD
 	NUMBER OF EQUATIONS:     18
 	NUMBER OF RHS:           1
 	NUMBER OF FLOPS:         2.109e+03

     CHECK POINT  START OF SOLVER     

     CHECK POINT  END OF SOLVER       

       ELAPSED USER TIME (SEC)      =   0.0000    
       ELAPSED SYSTEM TIME (SEC)    =   0.0000    
       ELAPSED TOTAL CPU TIME (SEC) =   0.0000    
       ELAPSED WALLCLOCK TIME (SEC) =            0

               CONVERGENCE CHECKS FOR EQUILIBRIUM ITERATION     1


 AVERAGE FORCE                      0.323       TIME AVG. FORCE       6.017E-02
 LARGEST SCALED RESIDUAL FORCE     -1.660E-05   AT NODE          2   DOF  1
  CORRESPONDING RESIDUAL FORCE     -1.660E-05
 LARGEST INCREMENT OF DISP.         1.009E-03   AT NODE          1   DOF  2
 LARGEST CORRECTION TO DISP.        1.429E-05   AT NODE          1   DOF  1
 ESTIMATE OF DISP.    CORRECTION   -1.177E-08
 FORCE     EQUILIB. ACCEPTED BASED ON SMALL RESIDUAL AND ESTIMATED CORRECTION

 ITERATION SUMMARY FOR THE INCREMENT:   1 TOTAL ITERATIONS, OF WHICH
   0 ARE SEVERE DISCONTINUITY ITERATIONS AND  1 ARE EQUILIBRIUM ITERATIONS.

 TIME INCREMENT COMPLETED   2.16    ,  FRACTION OF STEP COMPLETED  3.244E-02
 STEP TIME COMPLETED        7.00    ,  TOTAL TIME COMPLETED         7.00    


  INCREMENT    26 STARTS. ATTEMPT NUMBER  1, TIME INCREMENT   2.16    
 
	SYMMETRIC DIRECT SPARSE SOLVER RUNNING ON
 	1 HOST:        1 MPI RANK  x 1 THREAD
 	NUMBER OF EQUATIONS:     18
 	NUMBER OF RHS:           1
 	NUMBER OF FLOPS:         2.109e+03

     CHECK POINT  START OF SOLVER     

     CHECK POINT  END OF SOLVER       

       ELAPSED USER TIME (SEC)      =   0.0000    
       ELAPSED SYSTEM TIME (SEC)    =   0.0000    
       ELAPSED TOTAL CPU TIME (SEC) =   0.0000    
       ELAPSED WALLCLOCK TIME (SEC) =            0

               CONVERGENCE CHECKS FOR EQUILIBRIUM ITERATION     1


 AVERAGE FORCE                      0.338       TIME AVG. FORCE       7.087E-02
 LARGEST SCALED RESIDUAL FORCE     -1.423E-05   AT NODE          2   DOF  1
  CORRESPONDING RESIDUAL FORCE     -1.423E-05
 LARGEST INCREMENT OF DISP.         1.009E-03   AT NODE          1   DOF  2
 LARGEST CORRECTION TO DISP.        1.534E-05   AT NODE          1   DOF  1
 ESTIMATE OF DISP.    CORRECTION   -9.345E-09
 FORCE     EQUILIB. ACCEPTED BASED ON SMALL RESIDUAL AND ESTIMATED CORRECTION

 ITERATION SUMMARY FOR THE INCREMENT:   1 TOTAL ITERATIONS, OF WHICH
   0 ARE SEVERE DISCONTINUITY ITERATIONS AND  1 ARE EQUILIBRIUM ITERATIONS.

 TIME INCREMENT COMPLETED   2.16    ,  FRACTION OF STEP COMPLETED  4.244E-02
 STEP TIME COMPLETED        9.15    ,  TOTAL TIME COMPLETED         9.15    


  INCREMENT    27 STARTS. ATTEMPT NUMBER  1, TIME INCREMENT   2.16    
 
	SYMMETRIC DIRECT SPARSE SOLVER RUNNING ON
 	1 HOST:        1 MPI RANK  x 1 THREAD
 	NUMBER OF EQUATIONS:     18
 	NUMBER OF RHS:           1
 	NUMBER OF FLOPS:         2.109e+03

     CHECK POINT  START OF SOLVER     

     CHECK POINT  END OF SOLVER       

       ELAPSED USER TIME (SEC)      =   0.0000    
       ELAPSED SYSTEM TIME (SEC)    =   0.0000    
       ELAPSED TOTAL CPU TIME (SEC) =   0.0000    
       ELAPSED WALLCLOCK TIME (SEC) =            0

               CONVERGENCE CHECKS FOR EQUILIBRIUM ITERATION     1


 AVERAGE FORCE                      0.352       TIME AVG. FORCE       8.127E-02
 LARGEST SCALED RESIDUAL FORCE     -1.243E-05   AT NODE          2   DOF  1
  CORRESPONDING RESIDUAL FORCE     -1.243E-05
 LARGEST INCREMENT OF DISP.         1.009E-03   AT NODE          1   DOF  2
 LARGEST CORRECTION TO DISP.        1.500E-05   AT NODE          1   DOF  1
 ESTIMATE OF DISP.    CORRECTION   -7.944E-09
 FORCE     EQUILIB. ACCEPTED BASED ON SMALL RESIDUAL AND ESTIMATED CORRECTION

 ITERATION SUMMARY FOR THE INCREMENT:   1 TOTAL ITERATIONS, OF WHICH
   0 ARE SEVERE DISCONTINUITY ITERATIONS AND  1 ARE EQUILIBRIUM ITERATIONS.

 TIME INCREMENT COMPLETED   2.16    ,  FRACTION OF STEP COMPLETED  5.244E-02
 STEP TIME COMPLETED        11.3    ,  TOTAL TIME COMPLETED         11.3    


  INCREMENT    28 STARTS. ATTEMPT NUMBER  1, TIME INCREMENT   2.16    
 
	SYMMETRIC DIRECT SPARSE SOLVER RUNNING ON
 	1 HOST:        1 MPI RANK  x 1 THREAD
 	NUMBER OF EQUATIONS:     18
 	NUMBER OF RHS:           1
 	NUMBER OF FLOPS:         2.109e+03

     CHECK POINT  START OF SOLVER     

     CHECK POINT  END OF SOLVER       

       ELAPSED USER TIME (SEC)      =   0.0000    
       ELAPSED SYSTEM TIME (SEC)    =   0.0000    
       ELAPSED TOTAL CPU TIME (SEC) =   0.0000    
       ELAPSED WALLCLOCK TIME (SEC) =            0

               CONVERGENCE CHECKS FOR EQUILIBRIUM ITERATION     1


 AVERAGE FORCE                      0.363       TIME AVG. FORCE       9.133E-02
 LARGEST SCALED RESIDUAL FORCE     -9.813E-06   AT NODE          2   DOF  1
  CORRESPONDING RESIDUAL FORCE     -9.813E-06
 LARGEST INCREMENT OF DISP.         1.009E-03   AT NODE          1   DOF  2
 LARGEST CORRECTION TO DISP.        1.409E-05   AT NODE          1   DOF  1
 ESTIMATE OF DISP.    CORRECTION   -5.931E-09
 FORCE     EQUILIB. ACCEPTED BASED ON SMALL RESIDUAL AND ESTIMATED CORRECTION

 ITERATION SUMMARY FOR THE INCREMENT:   1 TOTAL ITERATIONS, OF WHICH
   0 ARE SEVERE DISCONTINUITY ITERATIONS AND  1 ARE EQUILIBRIUM ITERATIONS.

 TIME INCREMENT COMPLETED   2.16    ,  FRACTION OF STEP COMPLETED  6.244E-02
 STEP TIME COMPLETED        13.5    ,  TOTAL TIME COMPLETED         13.5    


  INCREMENT    29 STARTS. ATTEMPT NUMBER  1, TIME INCREMENT   2.16    
 
	SYMMETRIC DIRECT SPARSE SOLVER RUNNING ON
 	1 HOST:        1 MPI RANK  x 1 THREAD
 	NUMBER OF EQUATIONS:     18
 	NUMBER OF RHS:           1
 	NUMBER OF FLOPS:         2.109e+03

     CHECK POINT  START OF SOLVER     

     CHECK POINT  END OF SOLVER       

       ELAPSED USER TIME (SEC)      =   0.0000    
       ELAPSED SYSTEM TIME (SEC)    =   0.0000    
       ELAPSED TOTAL CPU TIME (SEC) =   0.0000    
       ELAPSED WALLCLOCK TIME (SEC) =            0

               CONVERGENCE CHECKS FOR EQUILIBRIUM ITERATION     1


 AVERAGE FORCE                      0.410       TIME AVG. FORCE       0.102    
 LARGEST SCALED RESIDUAL FORCE     -7.618E-06   AT NODE          2   DOF  1
  CORRESPONDING RESIDUAL FORCE     -7.618E-06
 LARGEST INCREMENT OF DISP.         1.009E-03   AT NODE          1   DOF  2
 LARGEST CORRECTION TO DISP.        1.332E-05   AT NODE          1   DOF  1
 ESTIMATE OF DISP.    CORRECTION   -4.393E-09
 FORCE     EQUILIB. ACCEPTED BASED ON SMALL RESIDUAL AND ESTIMATED CORRECTION

 ITERATION SUMMARY FOR THE INCREMENT:   1 TOTAL ITERATIONS, OF WHICH
   0 ARE SEVERE DISCONTINUITY ITERATIONS AND  1 ARE EQUILIBRIUM ITERATIONS.

 TIME INCREMENT COMPLETED   2.16    ,  FRACTION OF STEP COMPLETED  7.244E-02
 STEP TIME COMPLETED        15.6    ,  TOTAL TIME COMPLETED         15.6    


  INCREMENT    30 STARTS. ATTEMPT NUMBER  1, TIME INCREMENT   2.16    
 
	SYMMETRIC DIRECT SPARSE SOLVER RUNNING ON
 	1 HOST:        1 MPI RANK  x 1 THREAD
 	NUMBER OF EQUATIONS:     18
 	NUMBER OF RHS:           1
 	NUMBER OF FLOPS:         2.109e+03

     CHECK POINT  START OF SOLVER     

     CHECK POINT  END OF SOLVER       

       ELAPSED USER TIME (SEC)      =   0.0000    
       ELAPSED SYSTEM TIME (SEC)    =   0.0000    
       ELAPSED TOTAL CPU TIME (SEC) =   0.0000    
       ELAPSED WALLCLOCK TIME (SEC) =            0

               CONVERGENCE CHECKS FOR EQUILIBRIUM ITERATION     1


 AVERAGE FORCE                      0.382       TIME AVG. FORCE       0.112    
 LARGEST SCALED RESIDUAL FORCE     -5.914E-06   AT NODE          4   DOF  1
  CORRESPONDING RESIDUAL FORCE     -5.914E-06
 LARGEST INCREMENT OF DISP.         1.009E-03   AT NODE          1   DOF  2
 LARGEST CORRECTION TO DISP.        1.265E-05   AT NODE          1   DOF  1
 ESTIMATE OF DISP.    CORRECTION   -3.276E-09
 FORCE     EQUILIB. ACCEPTED BASED ON SMALL RESIDUAL AND ESTIMATED CORRECTION

 ITERATION SUMMARY FOR THE INCREMENT:   1 TOTAL ITERATIONS, OF WHICH
   0 ARE SEVERE DISCONTINUITY ITERATIONS AND  1 ARE EQUILIBRIUM ITERATIONS.

 TIME INCREMENT COMPLETED   2.16    ,  FRACTION OF STEP COMPLETED  8.244E-02
 STEP TIME COMPLETED        17.8    ,  TOTAL TIME COMPLETED         17.8    


  INCREMENT    31 STARTS. ATTEMPT NUMBER  1, TIME INCREMENT   2.16    
 
	SYMMETRIC DIRECT SPARSE SOLVER RUNNING ON
 	1 HOST:        1 MPI RANK  x 1 THREAD
 	NUMBER OF EQUATIONS:     18
 	NUMBER OF RHS:           1
 	NUMBER OF FLOPS:         2.109e+03

     CHECK POINT  START OF SOLVER     

     CHECK POINT  END OF SOLVER       

       ELAPSED USER TIME (SEC)      =   0.0000    
       ELAPSED SYSTEM TIME (SEC)    =   0.0000    
       ELAPSED TOTAL CPU TIME (SEC) =   0.0000    
       ELAPSED WALLCLOCK TIME (SEC) =            0

               CONVERGENCE CHECKS FOR EQUILIBRIUM ITERATION     1


 AVERAGE FORCE                      0.390       TIME AVG. FORCE       0.121    
 LARGEST SCALED RESIDUAL FORCE     -4.446E-06   AT NODE          4   DOF  1
  CORRESPONDING RESIDUAL FORCE     -4.446E-06
 LARGEST INCREMENT OF DISP.         1.009E-03   AT NODE          1   DOF  2
 LARGEST CORRECTION TO DISP.        1.206E-05   AT NODE          1   DOF  1
 ESTIMATE OF DISP.    CORRECTION   -2.377E-09
 FORCE     EQUILIB. ACCEPTED BASED ON SMALL RESIDUAL AND ESTIMATED CORRECTION

 ITERATION SUMMARY FOR THE INCREMENT:   1 TOTAL ITERATIONS, OF WHICH
   0 ARE SEVERE DISCONTINUITY ITERATIONS AND  1 ARE EQUILIBRIUM ITERATIONS.

 TIME INCREMENT COMPLETED   2.16    ,  FRACTION OF STEP COMPLETED  9.244E-02
 STEP TIME COMPLETED        19.9    ,  TOTAL TIME COMPLETED         19.9    


  INCREMENT    32 STARTS. ATTEMPT NUMBER  1, TIME INCREMENT   2.16    
 
	SYMMETRIC DIRECT SPARSE SOLVER RUNNING ON
 	1 HOST:        1 MPI RANK  x 1 THREAD
 	NUMBER OF EQUATIONS:     18
 	NUMBER OF RHS:           1
 	NUMBER OF FLOPS:         2.109e+03

     CHECK POINT  START OF SOLVER     

     CHECK POINT  END OF SOLVER       

       ELAPSED USER TIME (SEC)      =   0.0000    
       ELAPSED SYSTEM TIME (SEC)    =   0.0000    
       ELAPSED TOTAL CPU TIME (SEC) =   0.0000    
       ELAPSED WALLCLOCK TIME (SEC) =            0

               CONVERGENCE CHECKS FOR EQUILIBRIUM ITERATION     1


 AVERAGE FORCE                      0.416       TIME AVG. FORCE       0.130    
 LARGEST SCALED RESIDUAL FORCE     -4.173E-06   AT NODE          3   DOF  1
  CORRESPONDING RESIDUAL FORCE     -4.173E-06
 LARGEST INCREMENT OF DISP.         1.009E-03   AT NODE          1   DOF  2
 LARGEST CORRECTION TO DISP.        1.152E-05   AT NODE          1   DOF  1
 ESTIMATE OF DISP.    CORRECTION   -2.160E-09
 FORCE     EQUILIB. ACCEPTED BASED ON SMALL RESIDUAL AND ESTIMATED CORRECTION

 ITERATION SUMMARY FOR THE INCREMENT:   1 TOTAL ITERATIONS, OF WHICH
   0 ARE SEVERE DISCONTINUITY ITERATIONS AND  1 ARE EQUILIBRIUM ITERATIONS.

 TIME INCREMENT COMPLETED   2.16    ,  FRACTION OF STEP COMPLETED  0.102    
 STEP TIME COMPLETED        22.1    ,  TOTAL TIME COMPLETED         22.1    


  INCREMENT    33 STARTS. ATTEMPT NUMBER  1, TIME INCREMENT   2.16    
 
	SYMMETRIC DIRECT SPARSE SOLVER RUNNING ON
 	1 HOST:        1 MPI RANK  x 1 THREAD
 	NUMBER OF EQUATIONS:     18
 	NUMBER OF RHS:           1
 	NUMBER OF FLOPS:         2.109e+03

     CHECK POINT  START OF SOLVER     

     CHECK POINT  END OF SOLVER       

       ELAPSED USER TIME (SEC)      =   0.0000    
       ELAPSED SYSTEM TIME (SEC)    =   0.0000    
       ELAPSED TOTAL CPU TIME (SEC) =   0.0000    
       ELAPSED WALLCLOCK TIME (SEC) =            0

               CONVERGENCE CHECKS FOR EQUILIBRIUM ITERATION     1


 AVERAGE FORCE                      0.467       TIME AVG. FORCE       0.140    
 LARGEST SCALED RESIDUAL FORCE     -4.543E-06   AT NODE          3   DOF  1
  CORRESPONDING RESIDUAL FORCE     -4.543E-06
 LARGEST INCREMENT OF DISP.         1.009E-03   AT NODE          1   DOF  2
 LARGEST CORRECTION TO DISP.        1.103E-05   AT NODE          1   DOF  1
 ESTIMATE OF DISP.    CORRECTION   -2.283E-09
 FORCE     EQUILIB. ACCEPTED BASED ON SMALL RESIDUAL AND ESTIMATED CORRECTION

 ITERATION SUMMARY FOR THE INCREMENT:   1 TOTAL ITERATIONS, OF WHICH
   0 ARE SEVERE DISCONTINUITY ITERATIONS AND  1 ARE EQUILIBRIUM ITERATIONS.

 TIME INCREMENT COMPLETED   2.16    ,  FRACTION OF STEP COMPLETED  0.112    
 STEP TIME COMPLETED        24.2    ,  TOTAL TIME COMPLETED         24.2    


  INCREMENT    34 STARTS. ATTEMPT NUMBER  1, TIME INCREMENT   2.16    
 
	SYMMETRIC DIRECT SPARSE SOLVER RUNNING ON
 	1 HOST:        1 MPI RANK  x 1 THREAD
 	NUMBER OF EQUATIONS:     18
 	NUMBER OF RHS:           1
 	NUMBER OF FLOPS:         2.109e+03

     CHECK POINT  START OF SOLVER     

     CHECK POINT  END OF SOLVER       

       ELAPSED USER TIME (SEC)      =   0.0000    
       ELAPSED SYSTEM TIME (SEC)    =   0.0000    
       ELAPSED TOTAL CPU TIME (SEC) =   0.0000    
       ELAPSED WALLCLOCK TIME (SEC) =            0

               CONVERGENCE CHECKS FOR EQUILIBRIUM ITERATION     1


 AVERAGE FORCE                      0.473       TIME AVG. FORCE       0.150    
 LARGEST SCALED RESIDUAL FORCE     -4.890E-06   AT NODE          3   DOF  1
  CORRESPONDING RESIDUAL FORCE     -4.890E-06
 LARGEST INCREMENT OF DISP.         1.009E-03   AT NODE          1   DOF  2
 LARGEST CORRECTION TO DISP.        1.060E-05   AT NODE          3   DOF  1
 ESTIMATE OF DISP.    CORRECTION   -2.393E-09
 FORCE     EQUILIB. ACCEPTED BASED ON SMALL RESIDUAL AND ESTIMATED CORRECTION

 ITERATION SUMMARY FOR THE INCREMENT:   1 TOTAL ITERATIONS, OF WHICH
   0 ARE SEVERE DISCONTINUITY ITERATIONS AND  1 ARE EQUILIBRIUM ITERATIONS.

 TIME INCREMENT COMPLETED   2.16    ,  FRACTION OF STEP COMPLETED  0.122    
 STEP TIME COMPLETED        26.4    ,  TOTAL TIME COMPLETED         26.4    


  INCREMENT    35 STARTS. ATTEMPT NUMBER  1, TIME INCREMENT   2.16    
 
	SYMMETRIC DIRECT SPARSE SOLVER RUNNING ON
 	1 HOST:        1 MPI RANK  x 1 THREAD
 	NUMBER OF EQUATIONS:     18
 	NUMBER OF RHS:           1
 	NUMBER OF FLOPS:         2.109e+03

     CHECK POINT  START OF SOLVER     

     CHECK POINT  END OF SOLVER       

       ELAPSED USER TIME (SEC)      =   0.0000    
       ELAPSED SYSTEM TIME (SEC)    =   0.0000    
       ELAPSED TOTAL CPU TIME (SEC) =   0.0000    
       ELAPSED WALLCLOCK TIME (SEC) =            0

               CONVERGENCE CHECKS FOR EQUILIBRIUM ITERATION     1


 AVERAGE FORCE                      0.479       TIME AVG. FORCE       0.159    
 LARGEST SCALED RESIDUAL FORCE     -5.214E-06   AT NODE          3   DOF  1
  CORRESPONDING RESIDUAL FORCE     -5.214E-06
 LARGEST INCREMENT OF DISP.         1.009E-03   AT NODE          1   DOF  2
 LARGEST CORRECTION TO DISP.        1.020E-05   AT NODE          3   DOF  1
 ESTIMATE OF DISP.    CORRECTION   -2.490E-09
 FORCE     EQUILIB. ACCEPTED BASED ON SMALL RESIDUAL AND ESTIMATED CORRECTION

 ITERATION SUMMARY FOR THE INCREMENT:   1 TOTAL ITERATIONS, OF WHICH
   0 ARE SEVERE DISCONTINUITY ITERATIONS AND  1 ARE EQUILIBRIUM ITERATIONS.

 TIME INCREMENT COMPLETED   2.16    ,  FRACTION OF STEP COMPLETED  0.132    
 STEP TIME COMPLETED        28.6    ,  TOTAL TIME COMPLETED         28.6    


  INCREMENT    36 STARTS. ATTEMPT NUMBER  1, TIME INCREMENT   2.16    
 
	SYMMETRIC DIRECT SPARSE SOLVER RUNNING ON
 	1 HOST:        1 MPI RANK  x 1 THREAD
 	NUMBER OF EQUATIONS:     18
 	NUMBER OF RHS:           1
 	NUMBER OF FLOPS:         2.109e+03

     CHECK POINT  START OF SOLVER     

     CHECK POINT  END OF SOLVER       

       ELAPSED USER TIME (SEC)      =   0.0000    
       ELAPSED SYSTEM TIME (SEC)    =   0.0000    
       ELAPSED TOTAL CPU TIME (SEC) =   0.0000    
       ELAPSED WALLCLOCK TIME (SEC) =            0

               CONVERGENCE CHECKS FOR EQUILIBRIUM ITERATION     1


 AVERAGE FORCE                      0.484       TIME AVG. FORCE       0.168    
 LARGEST SCALED RESIDUAL FORCE     -5.515E-06   AT NODE          3   DOF  1
  CORRESPONDING RESIDUAL FORCE     -5.515E-06
 LARGEST INCREMENT OF DISP.         1.009E-03   AT NODE          1   DOF  2
 LARGEST CORRECTION TO DISP.        9.824E-06   AT NODE          3   DOF  1
          THE FORCE     EQUILIBRIUM EQUATIONS HAVE CONVERGED

 ITERATION SUMMARY FOR THE INCREMENT:   1 TOTAL ITERATIONS, OF WHICH
   0 ARE SEVERE DISCONTINUITY ITERATIONS AND  1 ARE EQUILIBRIUM ITERATIONS.

 TIME INCREMENT COMPLETED   2.16    ,  FRACTION OF STEP COMPLETED  0.142    
 STEP TIME COMPLETED        30.7    ,  TOTAL TIME COMPLETED         30.7    


  INCREMENT    37 STARTS. ATTEMPT NUMBER  1, TIME INCREMENT   2.16    
 
	SYMMETRIC DIRECT SPARSE SOLVER RUNNING ON
 	1 HOST:        1 MPI RANK  x 1 THREAD
 	NUMBER OF EQUATIONS:     18
 	NUMBER OF RHS:           1
 	NUMBER OF FLOPS:         2.109e+03

     CHECK POINT  START OF SOLVER     

     CHECK POINT  END OF SOLVER       

       ELAPSED USER TIME (SEC)      =   0.0000    
       ELAPSED SYSTEM TIME (SEC)    =   0.0000    
       ELAPSED TOTAL CPU TIME (SEC) =   0.0000    
       ELAPSED WALLCLOCK TIME (SEC) =            0

               CONVERGENCE CHECKS FOR EQUILIBRIUM ITERATION     1


 AVERAGE FORCE                      0.489       TIME AVG. FORCE       0.177    
 LARGEST SCALED RESIDUAL FORCE     -5.793E-06   AT NODE          3   DOF  1
  CORRESPONDING RESIDUAL FORCE     -5.793E-06
 LARGEST INCREMENT OF DISP.         1.009E-03   AT NODE          1   DOF  2
 LARGEST CORRECTION TO DISP.        9.471E-06   AT NODE          3   DOF  1
          THE FORCE     EQUILIBRIUM EQUATIONS HAVE CONVERGED

 ITERATION SUMMARY FOR THE INCREMENT:   1 TOTAL ITERATIONS, OF WHICH
   0 ARE SEVERE DISCONTINUITY ITERATIONS AND  1 ARE EQUILIBRIUM ITERATIONS.

 TIME INCREMENT COMPLETED   2.16    ,  FRACTION OF STEP COMPLETED  0.152    
 STEP TIME COMPLETED        32.9    ,  TOTAL TIME COMPLETED         32.9    


  INCREMENT    38 STARTS. ATTEMPT NUMBER  1, TIME INCREMENT   2.16    
 
	SYMMETRIC DIRECT SPARSE SOLVER RUNNING ON
 	1 HOST:        1 MPI RANK  x 1 THREAD
 	NUMBER OF EQUATIONS:     18
 	NUMBER OF RHS:           1
 	NUMBER OF FLOPS:         2.109e+03

     CHECK POINT  START OF SOLVER     

     CHECK POINT  END OF SOLVER       

       ELAPSED USER TIME (SEC)      =   0.0000    
       ELAPSED SYSTEM TIME (SEC)    =   0.0000    
       ELAPSED TOTAL CPU TIME (SEC) =   0.0000    
       ELAPSED WALLCLOCK TIME (SEC) =            0

               CONVERGENCE CHECKS FOR EQUILIBRIUM ITERATION     1


 AVERAGE FORCE                      0.521       TIME AVG. FORCE       0.186    
 LARGEST SCALED RESIDUAL FORCE     -6.050E-06   AT NODE          3   DOF  1
  CORRESPONDING RESIDUAL FORCE     -6.050E-06
 LARGEST INCREMENT OF DISP.         1.009E-03   AT NODE          1   DOF  2
 LARGEST CORRECTION TO DISP.        9.136E-06   AT NODE          3   DOF  1
          THE FORCE     EQUILIBRIUM EQUATIONS HAVE CONVERGED

 ITERATION SUMMARY FOR THE INCREMENT:   1 TOTAL ITERATIONS, OF WHICH
   0 ARE SEVERE DISCONTINUITY ITERATIONS AND  1 ARE EQUILIBRIUM ITERATIONS.

 TIME INCREMENT COMPLETED   2.16    ,  FRACTION OF STEP COMPLETED  0.162    
 STEP TIME COMPLETED        35.0    ,  TOTAL TIME COMPLETED         35.0    


  INCREMENT    39 STARTS. ATTEMPT NUMBER  1, TIME INCREMENT   2.16    
 
	SYMMETRIC DIRECT SPARSE SOLVER RUNNING ON
 	1 HOST:        1 MPI RANK  x 1 THREAD
 	NUMBER OF EQUATIONS:     18
 	NUMBER OF RHS:           1
 	NUMBER OF FLOPS:         2.109e+03

     CHECK POINT  START OF SOLVER     

     CHECK POINT  END OF SOLVER       

       ELAPSED USER TIME (SEC)      =   0.0000    
       ELAPSED SYSTEM TIME (SEC)    =   0.0000    
       ELAPSED TOTAL CPU TIME (SEC) =   0.0000    
       ELAPSED WALLCLOCK TIME (SEC) =            0

               CONVERGENCE CHECKS FOR EQUILIBRIUM ITERATION     1


 AVERAGE FORCE                      0.525       TIME AVG. FORCE       0.195    
 LARGEST SCALED RESIDUAL FORCE     -6.286E-06   AT NODE          3   DOF  1
  CORRESPONDING RESIDUAL FORCE     -6.286E-06
 LARGEST INCREMENT OF DISP.         1.009E-03   AT NODE          1   DOF  2
 LARGEST CORRECTION TO DISP.        8.818E-06   AT NODE          3   DOF  1
          THE FORCE     EQUILIBRIUM EQUATIONS HAVE CONVERGED

 ITERATION SUMMARY FOR THE INCREMENT:   1 TOTAL ITERATIONS, OF WHICH
   0 ARE SEVERE DISCONTINUITY ITERATIONS AND  1 ARE EQUILIBRIUM ITERATIONS.

 TIME INCREMENT COMPLETED   2.16    ,  FRACTION OF STEP COMPLETED  0.172    
 STEP TIME COMPLETED        37.2    ,  TOTAL TIME COMPLETED         37.2    


  INCREMENT    40 STARTS. ATTEMPT NUMBER  1, TIME INCREMENT   2.16    
 
	SYMMETRIC DIRECT SPARSE SOLVER RUNNING ON
 	1 HOST:        1 MPI RANK  x 1 THREAD
 	NUMBER OF EQUATIONS:     18
 	NUMBER OF RHS:           1
 	NUMBER OF FLOPS:         2.109e+03

     CHECK POINT  START OF SOLVER     

     CHECK POINT  END OF SOLVER       

       ELAPSED USER TIME (SEC)      =   0.0000    
       ELAPSED SYSTEM TIME (SEC)    =   0.0000    
       ELAPSED TOTAL CPU TIME (SEC) =   0.0000    
       ELAPSED WALLCLOCK TIME (SEC) =            0

               CONVERGENCE CHECKS FOR EQUILIBRIUM ITERATION     1


 AVERAGE FORCE                      0.528       TIME AVG. FORCE       0.203    
 LARGEST SCALED RESIDUAL FORCE     -6.502E-06   AT NODE          3   DOF  1
  CORRESPONDING RESIDUAL FORCE     -6.502E-06
 LARGEST INCREMENT OF DISP.         1.009E-03   AT NODE          1   DOF  2
 LARGEST CORRECTION TO DISP.        8.515E-06   AT NODE          3   DOF  1
          THE FORCE     EQUILIBRIUM EQUATIONS HAVE CONVERGED

 ITERATION SUMMARY FOR THE INCREMENT:   1 TOTAL ITERATIONS, OF WHICH
   0 ARE SEVERE DISCONTINUITY ITERATIONS AND  1 ARE EQUILIBRIUM ITERATIONS.

 TIME INCREMENT COMPLETED   2.16    ,  FRACTION OF STEP COMPLETED  0.182    
 STEP TIME COMPLETED        39.3    ,  TOTAL TIME COMPLETED         39.3    


  INCREMENT    41 STARTS. ATTEMPT NUMBER  1, TIME INCREMENT   2.16    
 
	SYMMETRIC DIRECT SPARSE SOLVER RUNNING ON
 	1 HOST:        1 MPI RANK  x 1 THREAD
 	NUMBER OF EQUATIONS:     18
 	NUMBER OF RHS:           1
 	NUMBER OF FLOPS:         2.109e+03

     CHECK POINT  START OF SOLVER     

     CHECK POINT  END OF SOLVER       

       ELAPSED USER TIME (SEC)      =   0.0000    
       ELAPSED SYSTEM TIME (SEC)    =   0.0000    
       ELAPSED TOTAL CPU TIME (SEC) =   0.0000    
       ELAPSED WALLCLOCK TIME (SEC) =            0

               CONVERGENCE CHECKS FOR EQUILIBRIUM ITERATION     1


 AVERAGE FORCE                      0.531       TIME AVG. FORCE       0.211    
 LARGEST SCALED RESIDUAL FORCE     -6.699E-06   AT NODE          3   DOF  1
  CORRESPONDING RESIDUAL FORCE     -6.699E-06
 LARGEST INCREMENT OF DISP.         1.009E-03   AT NODE          1   DOF  2
 LARGEST CORRECTION TO DISP.        8.227E-06   AT NODE          3   DOF  1
          THE FORCE     EQUILIBRIUM EQUATIONS HAVE CONVERGED

 ITERATION SUMMARY FOR THE INCREMENT:   1 TOTAL ITERATIONS, OF WHICH
   0 ARE SEVERE DISCONTINUITY ITERATIONS AND  1 ARE EQUILIBRIUM ITERATIONS.

 TIME INCREMENT COMPLETED   2.16    ,  FRACTION OF STEP COMPLETED  0.192    
 STEP TIME COMPLETED        41.5    ,  TOTAL TIME COMPLETED         41.5    


  INCREMENT    42 STARTS. ATTEMPT NUMBER  1, TIME INCREMENT   2.16    
 
	SYMMETRIC DIRECT SPARSE SOLVER RUNNING ON
 	1 HOST:        1 MPI RANK  x 1 THREAD
 	NUMBER OF EQUATIONS:     18
 	NUMBER OF RHS:           1
 	NUMBER OF FLOPS:         2.109e+03

     CHECK POINT  START OF SOLVER     

     CHECK POINT  END OF SOLVER       

       ELAPSED USER TIME (SEC)      =   0.0000    
       ELAPSED SYSTEM TIME (SEC)    =   0.0000    
       ELAPSED TOTAL CPU TIME (SEC) =   0.0000    
       ELAPSED WALLCLOCK TIME (SEC) =            0

               CONVERGENCE CHECKS FOR EQUILIBRIUM ITERATION     1


 AVERAGE FORCE                      0.506       TIME AVG. FORCE       0.218    
 LARGEST SCALED RESIDUAL FORCE     -6.877E-06   AT NODE          3   DOF  1
  CORRESPONDING RESIDUAL FORCE     -6.877E-06
 LARGEST INCREMENT OF DISP.         1.009E-03   AT NODE          1   DOF  2
 LARGEST CORRECTION TO DISP.        7.952E-06   AT NODE          3   DOF  1
          THE FORCE     EQUILIBRIUM EQUATIONS HAVE CONVERGED

 ITERATION SUMMARY FOR THE INCREMENT:   1 TOTAL ITERATIONS, OF WHICH
   0 ARE SEVERE DISCONTINUITY ITERATIONS AND  1 ARE EQUILIBRIUM ITERATIONS.

 TIME INCREMENT COMPLETED   2.16    ,  FRACTION OF STEP COMPLETED  0.202    
 STEP TIME COMPLETED        43.7    ,  TOTAL TIME COMPLETED         43.7    


  INCREMENT    43 STARTS. ATTEMPT NUMBER  1, TIME INCREMENT   2.16    
 
	SYMMETRIC DIRECT SPARSE SOLVER RUNNING ON
 	1 HOST:        1 MPI RANK  x 1 THREAD
 	NUMBER OF EQUATIONS:     18
 	NUMBER OF RHS:           1
 	NUMBER OF FLOPS:         2.109e+03

     CHECK POINT  START OF SOLVER     

     CHECK POINT  END OF SOLVER       

       ELAPSED USER TIME (SEC)      =   0.0000    
       ELAPSED SYSTEM TIME (SEC)    =   0.0000    
       ELAPSED TOTAL CPU TIME (SEC) =   0.0000    
       ELAPSED WALLCLOCK TIME (SEC) =            0

               CONVERGENCE CHECKS FOR EQUILIBRIUM ITERATION     1


 AVERAGE FORCE                      0.508       TIME AVG. FORCE       0.225    
 LARGEST SCALED RESIDUAL FORCE     -7.038E-06   AT NODE          3   DOF  1
  CORRESPONDING RESIDUAL FORCE     -7.038E-06
 LARGEST INCREMENT OF DISP.         1.009E-03   AT NODE          1   DOF  2
 LARGEST CORRECTION TO DISP.        7.689E-06   AT NODE          3   DOF  1
          THE FORCE     EQUILIBRIUM EQUATIONS HAVE CONVERGED

 ITERATION SUMMARY FOR THE INCREMENT:   1 TOTAL ITERATIONS, OF WHICH
   0 ARE SEVERE DISCONTINUITY ITERATIONS AND  1 ARE EQUILIBRIUM ITERATIONS.

 TIME INCREMENT COMPLETED   2.16    ,  FRACTION OF STEP COMPLETED  0.212    
 STEP TIME COMPLETED        45.8    ,  TOTAL TIME COMPLETED         45.8    


  INCREMENT    44 STARTS. ATTEMPT NUMBER  1, TIME INCREMENT   2.16    
 
	SYMMETRIC DIRECT SPARSE SOLVER RUNNING ON
 	1 HOST:        1 MPI RANK  x 1 THREAD
 	NUMBER OF EQUATIONS:     18
 	NUMBER OF RHS:           1
 	NUMBER OF FLOPS:         2.109e+03

     CHECK POINT  START OF SOLVER     

     CHECK POINT  END OF SOLVER       

       ELAPSED USER TIME (SEC)      =   0.0000    
       ELAPSED SYSTEM TIME (SEC)    =   0.0000    
       ELAPSED TOTAL CPU TIME (SEC) =   0.0000    
       ELAPSED WALLCLOCK TIME (SEC) =            0

               CONVERGENCE CHECKS FOR EQUILIBRIUM ITERATION     1


 AVERAGE FORCE                      0.510       TIME AVG. FORCE       0.231    
 LARGEST SCALED RESIDUAL FORCE     -7.182E-06   AT NODE          3   DOF  1
  CORRESPONDING RESIDUAL FORCE     -7.182E-06
 LARGEST INCREMENT OF DISP.         1.009E-03   AT NODE          1   DOF  2
 LARGEST CORRECTION TO DISP.        7.438E-06   AT NODE          3   DOF  1
          THE FORCE     EQUILIBRIUM EQUATIONS HAVE CONVERGED

 ITERATION SUMMARY FOR THE INCREMENT:   1 TOTAL ITERATIONS, OF WHICH
   0 ARE SEVERE DISCONTINUITY ITERATIONS AND  1 ARE EQUILIBRIUM ITERATIONS.

 TIME INCREMENT COMPLETED   2.16    ,  FRACTION OF STEP COMPLETED  0.222    
 STEP TIME COMPLETED        48.0    ,  TOTAL TIME COMPLETED         48.0    


  INCREMENT    45 STARTS. ATTEMPT NUMBER  1, TIME INCREMENT   2.16    
 
	SYMMETRIC DIRECT SPARSE SOLVER RUNNING ON
 	1 HOST:        1 MPI RANK  x 1 THREAD
 	NUMBER OF EQUATIONS:     18
 	NUMBER OF RHS:           1
 	NUMBER OF FLOPS:         2.109e+03

     CHECK POINT  START OF SOLVER     

     CHECK POINT  END OF SOLVER       

       ELAPSED USER TIME (SEC)      =   0.0000    
       ELAPSED SYSTEM TIME (SEC)    =   0.0000    
       ELAPSED TOTAL CPU TIME (SEC) =   0.0000    
       ELAPSED WALLCLOCK TIME (SEC) =            0

               CONVERGENCE CHECKS FOR EQUILIBRIUM ITERATION     1


 AVERAGE FORCE                      0.512       TIME AVG. FORCE       0.238    
 LARGEST SCALED RESIDUAL FORCE     -7.310E-06   AT NODE          3   DOF  1
  CORRESPONDING RESIDUAL FORCE     -7.310E-06
 LARGEST INCREMENT OF DISP.         1.009E-03   AT NODE          1   DOF  2
 LARGEST CORRECTION TO DISP.        7.198E-06   AT NODE          3   DOF  1
          THE FORCE     EQUILIBRIUM EQUATIONS HAVE CONVERGED

 ITERATION SUMMARY FOR THE INCREMENT:   1 TOTAL ITERATIONS, OF WHICH
   0 ARE SEVERE DISCONTINUITY ITERATIONS AND  1 ARE EQUILIBRIUM ITERATIONS.

 TIME INCREMENT COMPLETED   2.16    ,  FRACTION OF STEP COMPLETED  0.232    
 STEP TIME COMPLETED        50.1    ,  TOTAL TIME COMPLETED         50.1    


  INCREMENT    46 STARTS. ATTEMPT NUMBER  1, TIME INCREMENT   2.16    
 
	SYMMETRIC DIRECT SPARSE SOLVER RUNNING ON
 	1 HOST:        1 MPI RANK  x 1 THREAD
 	NUMBER OF EQUATIONS:     18
 	NUMBER OF RHS:           1
 	NUMBER OF FLOPS:         2.109e+03

     CHECK POINT  START OF SOLVER     

     CHECK POINT  END OF SOLVER       

       ELAPSED USER TIME (SEC)      =   0.0000    
       ELAPSED SYSTEM TIME (SEC)    =   0.0000    
       ELAPSED TOTAL CPU TIME (SEC) =   0.0000    
       ELAPSED WALLCLOCK TIME (SEC) =            0

               CONVERGENCE CHECKS FOR EQUILIBRIUM ITERATION     1


 AVERAGE FORCE                      0.488       TIME AVG. FORCE       0.243    
 LARGEST SCALED RESIDUAL FORCE     -7.424E-06   AT NODE          3   DOF  1
  CORRESPONDING RESIDUAL FORCE     -7.424E-06
 LARGEST INCREMENT OF DISP.         1.009E-03   AT NODE          1   DOF  2
 LARGEST CORRECTION TO DISP.        6.969E-06   AT NODE          3   DOF  1
          THE FORCE     EQUILIBRIUM EQUATIONS HAVE CONVERGED

 ITERATION SUMMARY FOR THE INCREMENT:   1 TOTAL ITERATIONS, OF WHICH
   0 ARE SEVERE DISCONTINUITY ITERATIONS AND  1 ARE EQUILIBRIUM ITERATIONS.

 TIME INCREMENT COMPLETED   2.16    ,  FRACTION OF STEP COMPLETED  0.242    
 STEP TIME COMPLETED        52.3    ,  TOTAL TIME COMPLETED         52.3    


  INCREMENT    47 STARTS. ATTEMPT NUMBER  1, TIME INCREMENT   2.16    
 
	SYMMETRIC DIRECT SPARSE SOLVER RUNNING ON
 	1 HOST:        1 MPI RANK  x 1 THREAD
 	NUMBER OF EQUATIONS:     18
 	NUMBER OF RHS:           1
 	NUMBER OF FLOPS:         2.109e+03

     CHECK POINT  START OF SOLVER     

     CHECK POINT  END OF SOLVER       

       ELAPSED USER TIME (SEC)      =   0.0000    
       ELAPSED SYSTEM TIME (SEC)    =   0.0000    
       ELAPSED TOTAL CPU TIME (SEC) =   0.0000    
       ELAPSED WALLCLOCK TIME (SEC) =            0

               CONVERGENCE CHECKS FOR EQUILIBRIUM ITERATION     1


 AVERAGE FORCE                      0.489       TIME AVG. FORCE       0.248    
 LARGEST SCALED RESIDUAL FORCE     -7.524E-06   AT NODE          3   DOF  1
  CORRESPONDING RESIDUAL FORCE     -7.524E-06
 LARGEST INCREMENT OF DISP.         1.009E-03   AT NODE          1   DOF  2
 LARGEST CORRECTION TO DISP.        6.749E-06   AT NODE          3   DOF  1
          THE FORCE     EQUILIBRIUM EQUATIONS HAVE CONVERGED

 ITERATION SUMMARY FOR THE INCREMENT:   1 TOTAL ITERATIONS, OF WHICH
   0 ARE SEVERE DISCONTINUITY ITERATIONS AND  1 ARE EQUILIBRIUM ITERATIONS.

 TIME INCREMENT COMPLETED   2.16    ,  FRACTION OF STEP COMPLETED  0.252    
 STEP TIME COMPLETED        54.4    ,  TOTAL TIME COMPLETED         54.4    


  INCREMENT    48 STARTS. ATTEMPT NUMBER  1, TIME INCREMENT   2.16    
 
	SYMMETRIC DIRECT SPARSE SOLVER RUNNING ON
 	1 HOST:        1 MPI RANK  x 1 THREAD
 	NUMBER OF EQUATIONS:     18
 	NUMBER OF RHS:           1
 	NUMBER OF FLOPS:         2.109e+03

     CHECK POINT  START OF SOLVER     

     CHECK POINT  END OF SOLVER       

       ELAPSED USER TIME (SEC)      =   0.0000    
       ELAPSED SYSTEM TIME (SEC)    =   0.0000    
       ELAPSED TOTAL CPU TIME (SEC) =   0.0000    
       ELAPSED WALLCLOCK TIME (SEC) =            0

               CONVERGENCE CHECKS FOR EQUILIBRIUM ITERATION     1


 AVERAGE FORCE                      0.490       TIME AVG. FORCE       0.253    
 LARGEST SCALED RESIDUAL FORCE     -7.611E-06   AT NODE          3   DOF  1
  CORRESPONDING RESIDUAL FORCE     -7.611E-06
 LARGEST INCREMENT OF DISP.         1.009E-03   AT NODE          1   DOF  2
 LARGEST CORRECTION TO DISP.        6.539E-06   AT NODE          3   DOF  1
          THE FORCE     EQUILIBRIUM EQUATIONS HAVE CONVERGED

 ITERATION SUMMARY FOR THE INCREMENT:   1 TOTAL ITERATIONS, OF WHICH
   0 ARE SEVERE DISCONTINUITY ITERATIONS AND  1 ARE EQUILIBRIUM ITERATIONS.

 TIME INCREMENT COMPLETED   2.16    ,  FRACTION OF STEP COMPLETED  0.262    
 STEP TIME COMPLETED        56.6    ,  TOTAL TIME COMPLETED         56.6    


  INCREMENT    49 STARTS. ATTEMPT NUMBER  1, TIME INCREMENT   2.16    
 
	SYMMETRIC DIRECT SPARSE SOLVER RUNNING ON
 	1 HOST:        1 MPI RANK  x 1 THREAD
 	NUMBER OF EQUATIONS:     18
 	NUMBER OF RHS:           1
 	NUMBER OF FLOPS:         2.109e+03

     CHECK POINT  START OF SOLVER     

     CHECK POINT  END OF SOLVER       

       ELAPSED USER TIME (SEC)      =   0.0000    
       ELAPSED SYSTEM TIME (SEC)    =   0.0000    
       ELAPSED TOTAL CPU TIME (SEC) =   0.0000    
       ELAPSED WALLCLOCK TIME (SEC) =            0

               CONVERGENCE CHECKS FOR EQUILIBRIUM ITERATION     1


 AVERAGE FORCE                      0.491       TIME AVG. FORCE       0.258    
 LARGEST SCALED RESIDUAL FORCE     -7.685E-06   AT NODE          3   DOF  1
  CORRESPONDING RESIDUAL FORCE     -7.685E-06
 LARGEST INCREMENT OF DISP.         1.009E-03   AT NODE          1   DOF  2
 LARGEST CORRECTION TO DISP.        6.338E-06   AT NODE          3   DOF  1
          THE FORCE     EQUILIBRIUM EQUATIONS HAVE CONVERGED

 ITERATION SUMMARY FOR THE INCREMENT:   1 TOTAL ITERATIONS, OF WHICH
   0 ARE SEVERE DISCONTINUITY ITERATIONS AND  1 ARE EQUILIBRIUM ITERATIONS.

 TIME INCREMENT COMPLETED   2.16    ,  FRACTION OF STEP COMPLETED  0.272    
 STEP TIME COMPLETED        58.7    ,  TOTAL TIME COMPLETED         58.7    


  INCREMENT    50 STARTS. ATTEMPT NUMBER  1, TIME INCREMENT   2.16    
 
	SYMMETRIC DIRECT SPARSE SOLVER RUNNING ON
 	1 HOST:        1 MPI RANK  x 1 THREAD
 	NUMBER OF EQUATIONS:     18
 	NUMBER OF RHS:           1
 	NUMBER OF FLOPS:         2.109e+03

     CHECK POINT  START OF SOLVER     

     CHECK POINT  END OF SOLVER       

       ELAPSED USER TIME (SEC)      =   0.0000    
       ELAPSED SYSTEM TIME (SEC)    =   0.0000    
       ELAPSED TOTAL CPU TIME (SEC) =   0.0000    
       ELAPSED WALLCLOCK TIME (SEC) =            0

               CONVERGENCE CHECKS FOR EQUILIBRIUM ITERATION     1


 AVERAGE FORCE                      0.492       TIME AVG. FORCE       0.263    
 LARGEST SCALED RESIDUAL FORCE     -7.748E-06   AT NODE          3   DOF  1
  CORRESPONDING RESIDUAL FORCE     -7.748E-06
 LARGEST INCREMENT OF DISP.         1.009E-03   AT NODE          1   DOF  2
 LARGEST CORRECTION TO DISP.        6.145E-06   AT NODE          3   DOF  1
          THE FORCE     EQUILIBRIUM EQUATIONS HAVE CONVERGED

 ITERATION SUMMARY FOR THE INCREMENT:   1 TOTAL ITERATIONS, OF WHICH
   0 ARE SEVERE DISCONTINUITY ITERATIONS AND  1 ARE EQUILIBRIUM ITERATIONS.

 TIME INCREMENT COMPLETED   2.16    ,  FRACTION OF STEP COMPLETED  0.282    
 STEP TIME COMPLETED        60.9    ,  TOTAL TIME COMPLETED         60.9    


  INCREMENT    51 STARTS. ATTEMPT NUMBER  1, TIME INCREMENT   2.16    
 
	SYMMETRIC DIRECT SPARSE SOLVER RUNNING ON
 	1 HOST:        1 MPI RANK  x 1 THREAD
 	NUMBER OF EQUATIONS:     18
 	NUMBER OF RHS:           1
 	NUMBER OF FLOPS:         2.109e+03

     CHECK POINT  START OF SOLVER     

     CHECK POINT  END OF SOLVER       

       ELAPSED USER TIME (SEC)      =   0.0000    
       ELAPSED SYSTEM TIME (SEC)    =   0.0000    
       ELAPSED TOTAL CPU TIME (SEC) =   0.0000    
       ELAPSED WALLCLOCK TIME (SEC) =            0

               CONVERGENCE CHECKS FOR EQUILIBRIUM ITERATION     1


 AVERAGE FORCE                      0.492       TIME AVG. FORCE       0.267    
 LARGEST SCALED RESIDUAL FORCE     -7.800E-06   AT NODE          3   DOF  1
  CORRESPONDING RESIDUAL FORCE     -7.800E-06
 LARGEST INCREMENT OF DISP.         1.009E-03   AT NODE          1   DOF  2
 LARGEST CORRECTION TO DISP.        5.960E-06   AT NODE          3   DOF  1
          THE FORCE     EQUILIBRIUM EQUATIONS HAVE CONVERGED

 ITERATION SUMMARY FOR THE INCREMENT:   1 TOTAL ITERATIONS, OF WHICH
   0 ARE SEVERE DISCONTINUITY ITERATIONS AND  1 ARE EQUILIBRIUM ITERATIONS.

 TIME INCREMENT COMPLETED   2.16    ,  FRACTION OF STEP COMPLETED  0.292    
 STEP TIME COMPLETED        63.1    ,  TOTAL TIME COMPLETED         63.1    


  INCREMENT    52 STARTS. ATTEMPT NUMBER  1, TIME INCREMENT   2.16    
 
	SYMMETRIC DIRECT SPARSE SOLVER RUNNING ON
 	1 HOST:        1 MPI RANK  x 1 THREAD
 	NUMBER OF EQUATIONS:     18
 	NUMBER OF RHS:           1
 	NUMBER OF FLOPS:         2.109e+03

     CHECK POINT  START OF SOLVER     

     CHECK POINT  END OF SOLVER       

       ELAPSED USER TIME (SEC)      =   0.0000    
       ELAPSED SYSTEM TIME (SEC)    =   0.0000    
       ELAPSED TOTAL CPU TIME (SEC) =   0.0000    
       ELAPSED WALLCLOCK TIME (SEC) =            0

               CONVERGENCE CHECKS FOR EQUILIBRIUM ITERATION     1


 AVERAGE FORCE                      0.493       TIME AVG. FORCE       0.272    
 LARGEST SCALED RESIDUAL FORCE     -7.841E-06   AT NODE          3   DOF  1
  CORRESPONDING RESIDUAL FORCE     -7.841E-06
 LARGEST INCREMENT OF DISP.         1.009E-03   AT NODE          1   DOF  2
 LARGEST CORRECTION TO DISP.        5.783E-06   AT NODE          3   DOF  1
          THE FORCE     EQUILIBRIUM EQUATIONS HAVE CONVERGED

 ITERATION SUMMARY FOR THE INCREMENT:   1 TOTAL ITERATIONS, OF WHICH
[...]

 TIME INCREMENT COMPLETED   2.16    ,  FRACTION OF STEP COMPLETED  0.862    
 STEP TIME COMPLETED        186.    ,  TOTAL TIME COMPLETED         186.    


  INCREMENT   109 STARTS. ATTEMPT NUMBER  1, TIME INCREMENT   2.16    
 
	SYMMETRIC DIRECT SPARSE SOLVER RUNNING ON
 	1 HOST:        1 MPI RANK  x 1 THREAD
 	NUMBER OF EQUATIONS:     18
 	NUMBER OF RHS:           1
 	NUMBER OF FLOPS:         2.109e+03

     CHECK POINT  START OF SOLVER     

     CHECK POINT  END OF SOLVER       

       ELAPSED USER TIME (SEC)      =   0.0000    
       ELAPSED SYSTEM TIME (SEC)    =   0.0000    
       ELAPSED TOTAL CPU TIME (SEC) =   0.0000    
       ELAPSED WALLCLOCK TIME (SEC) =            0

               CONVERGENCE CHECKS FOR EQUILIBRIUM ITERATION     1


 AVERAGE FORCE                      0.548       TIME AVG. FORCE       0.426    
 LARGEST SCALED RESIDUAL FORCE      5.115E-06   AT NODE          2   DOF  1
  CORRESPONDING RESIDUAL FORCE      5.115E-06
 LARGEST INCREMENT OF DISP.         1.009E-03   AT NODE          1   DOF  2
 LARGEST CORRECTION TO DISP.        1.933E-06   AT NODE          2   DOF  3
          THE FORCE     EQUILIBRIUM EQUATIONS HAVE CONVERGED

 ITERATION SUMMARY FOR THE INCREMENT:   1 TOTAL ITERATIONS, OF WHICH
   0 ARE SEVERE DISCONTINUITY ITERATIONS AND  1 ARE EQUILIBRIUM ITERATIONS.

 TIME INCREMENT COMPLETED   2.16    ,  FRACTION OF STEP COMPLETED  0.872    
 STEP TIME COMPLETED        188.    ,  TOTAL TIME COMPLETED         188.    


  INCREMENT   110 STARTS. ATTEMPT NUMBER  1, TIME INCREMENT   2.16    
 
	SYMMETRIC DIRECT SPARSE SOLVER RUNNING ON
 	1 HOST:        1 MPI RANK  x 1 THREAD
 	NUMBER OF EQUATIONS:     18
 	NUMBER OF RHS:           1
 	NUMBER OF FLOPS:         2.109e+03

     CHECK POINT  START OF SOLVER     

     CHECK POINT  END OF SOLVER       

       ELAPSED USER TIME (SEC)      =   0.0000    
       ELAPSED SYSTEM TIME (SEC)    =   0.0000    
       ELAPSED TOTAL CPU TIME (SEC) =   0.0000    
       ELAPSED WALLCLOCK TIME (SEC) =            0

               CONVERGENCE CHECKS FOR EQUILIBRIUM ITERATION     1


 AVERAGE FORCE                      0.546       TIME AVG. FORCE       0.427    
 LARGEST SCALED RESIDUAL FORCE      5.053E-06   AT NODE          2   DOF  1
  CORRESPONDING RESIDUAL FORCE      5.053E-06
 LARGEST INCREMENT OF DISP.         1.009E-03   AT NODE          1   DOF  2
 LARGEST CORRECTION TO DISP.        1.900E-06   AT NODE          2   DOF  3
          THE FORCE     EQUILIBRIUM EQUATIONS HAVE CONVERGED

 ITERATION SUMMARY FOR THE INCREMENT:   1 TOTAL ITERATIONS, OF WHICH
   0 ARE SEVERE DISCONTINUITY ITERATIONS AND  1 ARE EQUILIBRIUM ITERATIONS.

 TIME INCREMENT COMPLETED   2.16    ,  FRACTION OF STEP COMPLETED  0.882    
 STEP TIME COMPLETED        190.    ,  TOTAL TIME COMPLETED         190.    


  INCREMENT   111 STARTS. ATTEMPT NUMBER  1, TIME INCREMENT   2.16    
 
	SYMMETRIC DIRECT SPARSE SOLVER RUNNING ON
 	1 HOST:        1 MPI RANK  x 1 THREAD
 	NUMBER OF EQUATIONS:     18
 	NUMBER OF RHS:           1
 	NUMBER OF FLOPS:         2.109e+03

     CHECK POINT  START OF SOLVER     

     CHECK POINT  END OF SOLVER       

       ELAPSED USER TIME (SEC)      =   0.0000    
       ELAPSED SYSTEM TIME (SEC)    =   0.0000    
       ELAPSED TOTAL CPU TIME (SEC) =   0.0000    
       ELAPSED WALLCLOCK TIME (SEC) =            0

               CONVERGENCE CHECKS FOR EQUILIBRIUM ITERATION     1


 AVERAGE FORCE                      0.545       TIME AVG. FORCE       0.428    
 LARGEST SCALED RESIDUAL FORCE      4.992E-06   AT NODE          2   DOF  1
  CORRESPONDING RESIDUAL FORCE      4.992E-06
 LARGEST INCREMENT OF DISP.         1.009E-03   AT NODE          1   DOF  2
 LARGEST CORRECTION TO DISP.        1.868E-06   AT NODE          2   DOF  3
          THE FORCE     EQUILIBRIUM EQUATIONS HAVE CONVERGED

 ITERATION SUMMARY FOR THE INCREMENT:   1 TOTAL ITERATIONS, OF WHICH
   0 ARE SEVERE DISCONTINUITY ITERATIONS AND  1 ARE EQUILIBRIUM ITERATIONS.

 TIME INCREMENT COMPLETED   2.16    ,  FRACTION OF STEP COMPLETED  0.892    
 STEP TIME COMPLETED        192.    ,  TOTAL TIME COMPLETED         192.    


  INCREMENT   112 STARTS. ATTEMPT NUMBER  1, TIME INCREMENT   2.16    
 
	SYMMETRIC DIRECT SPARSE SOLVER RUNNING ON
 	1 HOST:        1 MPI RANK  x 1 THREAD
 	NUMBER OF EQUATIONS:     18
 	NUMBER OF RHS:           1
 	NUMBER OF FLOPS:         2.109e+03

     CHECK POINT  START OF SOLVER     

     CHECK POINT  END OF SOLVER       

       ELAPSED USER TIME (SEC)      =   0.0000    
       ELAPSED SYSTEM TIME (SEC)    =   0.0000    
       ELAPSED TOTAL CPU TIME (SEC) =   0.0000    
       ELAPSED WALLCLOCK TIME (SEC) =            0

               CONVERGENCE CHECKS FOR EQUILIBRIUM ITERATION     1


 AVERAGE FORCE                      0.543       TIME AVG. FORCE       0.429    
 LARGEST SCALED RESIDUAL FORCE      4.931E-06   AT NODE          2   DOF  1
  CORRESPONDING RESIDUAL FORCE      4.931E-06
 LARGEST INCREMENT OF DISP.         1.009E-03   AT NODE          1   DOF  2
 LARGEST CORRECTION TO DISP.        1.837E-06   AT NODE          2   DOF  3
          THE FORCE     EQUILIBRIUM EQUATIONS HAVE CONVERGED

 ITERATION SUMMARY FOR THE INCREMENT:   1 TOTAL ITERATIONS, OF WHICH
   0 ARE SEVERE DISCONTINUITY ITERATIONS AND  1 ARE EQUILIBRIUM ITERATIONS.

 TIME INCREMENT COMPLETED   2.16    ,  FRACTION OF STEP COMPLETED  0.902    
 STEP TIME COMPLETED        195.    ,  TOTAL TIME COMPLETED         195.    


  INCREMENT   113 STARTS. ATTEMPT NUMBER  1, TIME INCREMENT   2.16    
 
	SYMMETRIC DIRECT SPARSE SOLVER RUNNING ON
 	1 HOST:        1 MPI RANK  x 1 THREAD
 	NUMBER OF EQUATIONS:     18
 	NUMBER OF RHS:           1
 	NUMBER OF FLOPS:         2.109e+03

     CHECK POINT  START OF SOLVER     

     CHECK POINT  END OF SOLVER       

       ELAPSED USER TIME (SEC)      =   0.0000    
       ELAPSED SYSTEM TIME (SEC)    =   0.0000    
       ELAPSED TOTAL CPU TIME (SEC) =   0.0000    
       ELAPSED WALLCLOCK TIME (SEC) =            0

               CONVERGENCE CHECKS FOR EQUILIBRIUM ITERATION     1


 AVERAGE FORCE                      0.541       TIME AVG. FORCE       0.430    
 LARGEST SCALED RESIDUAL FORCE      4.870E-06   AT NODE          2   DOF  1
  CORRESPONDING RESIDUAL FORCE      4.870E-06
 LARGEST INCREMENT OF DISP.         1.009E-03   AT NODE          1   DOF  2
 LARGEST CORRECTION TO DISP.        1.806E-06   AT NODE          2   DOF  3
          THE FORCE     EQUILIBRIUM EQUATIONS HAVE CONVERGED

 ITERATION SUMMARY FOR THE INCREMENT:   1 TOTAL ITERATIONS, OF WHICH
   0 ARE SEVERE DISCONTINUITY ITERATIONS AND  1 ARE EQUILIBRIUM ITERATIONS.

 TIME INCREMENT COMPLETED   2.16    ,  FRACTION OF STEP COMPLETED  0.912    
 STEP TIME COMPLETED        197.    ,  TOTAL TIME COMPLETED         197.    


  INCREMENT   114 STARTS. ATTEMPT NUMBER  1, TIME INCREMENT   2.16    
 
	SYMMETRIC DIRECT SPARSE SOLVER RUNNING ON
 	1 HOST:        1 MPI RANK  x 1 THREAD
 	NUMBER OF EQUATIONS:     18
 	NUMBER OF RHS:           1
 	NUMBER OF FLOPS:         2.109e+03

     CHECK POINT  START OF SOLVER     

     CHECK POINT  END OF SOLVER       

       ELAPSED USER TIME (SEC)      =   0.0000    
       ELAPSED SYSTEM TIME (SEC)    =   0.0000    
       ELAPSED TOTAL CPU TIME (SEC) =   0.0000    
       ELAPSED WALLCLOCK TIME (SEC) =            0

               CONVERGENCE CHECKS FOR EQUILIBRIUM ITERATION     1


 AVERAGE FORCE                      0.540       TIME AVG. FORCE       0.431    
 LARGEST SCALED RESIDUAL FORCE      4.811E-06   AT NODE          2   DOF  1
  CORRESPONDING RESIDUAL FORCE      4.811E-06
 LARGEST INCREMENT OF DISP.         1.009E-03   AT NODE          1   DOF  2
 LARGEST CORRECTION TO DISP.        1.777E-06   AT NODE          2   DOF  3
          THE FORCE     EQUILIBRIUM EQUATIONS HAVE CONVERGED

 ITERATION SUMMARY FOR THE INCREMENT:   1 TOTAL ITERATIONS, OF WHICH
   0 ARE SEVERE DISCONTINUITY ITERATIONS AND  1 ARE EQUILIBRIUM ITERATIONS.

 TIME INCREMENT COMPLETED   2.16    ,  FRACTION OF STEP COMPLETED  0.922    
 STEP TIME COMPLETED        199.    ,  TOTAL TIME COMPLETED         199.    


  INCREMENT   115 STARTS. ATTEMPT NUMBER  1, TIME INCREMENT   2.16    
 
	SYMMETRIC DIRECT SPARSE SOLVER RUNNING ON
 	1 HOST:        1 MPI RANK  x 1 THREAD
 	NUMBER OF EQUATIONS:     18
 	NUMBER OF RHS:           1
 	NUMBER OF FLOPS:         2.109e+03

     CHECK POINT  START OF SOLVER     

     CHECK POINT  END OF SOLVER       

       ELAPSED USER TIME (SEC)      =   0.0000    
       ELAPSED SYSTEM TIME (SEC)    =   0.0000    
       ELAPSED TOTAL CPU TIME (SEC) =   0.0000    
       ELAPSED WALLCLOCK TIME (SEC) =            0

               CONVERGENCE CHECKS FOR EQUILIBRIUM ITERATION     1


 AVERAGE FORCE                      0.538       TIME AVG. FORCE       0.432    
 LARGEST SCALED RESIDUAL FORCE      4.752E-06   AT NODE          2   DOF  1
  CORRESPONDING RESIDUAL FORCE      4.752E-06
 LARGEST INCREMENT OF DISP.         1.009E-03   AT NODE          1   DOF  2
 LARGEST CORRECTION TO DISP.        1.748E-06   AT NODE          2   DOF  3
          THE FORCE     EQUILIBRIUM EQUATIONS HAVE CONVERGED

 ITERATION SUMMARY FOR THE INCREMENT:   1 TOTAL ITERATIONS, OF WHICH
   0 ARE SEVERE DISCONTINUITY ITERATIONS AND  1 ARE EQUILIBRIUM ITERATIONS.

 TIME INCREMENT COMPLETED   2.16    ,  FRACTION OF STEP COMPLETED  0.932    
 STEP TIME COMPLETED        201.    ,  TOTAL TIME COMPLETED         201.    


  INCREMENT   116 STARTS. ATTEMPT NUMBER  1, TIME INCREMENT   2.16    
 
	SYMMETRIC DIRECT SPARSE SOLVER RUNNING ON
 	1 HOST:        1 MPI RANK  x 1 THREAD
 	NUMBER OF EQUATIONS:     18
 	NUMBER OF RHS:           1
 	NUMBER OF FLOPS:         2.109e+03

     CHECK POINT  START OF SOLVER     

     CHECK POINT  END OF SOLVER       

       ELAPSED USER TIME (SEC)      =   0.0000    
       ELAPSED SYSTEM TIME (SEC)    =   0.0000    
       ELAPSED TOTAL CPU TIME (SEC) =   0.0000    
       ELAPSED WALLCLOCK TIME (SEC) =            0

               CONVERGENCE CHECKS FOR EQUILIBRIUM ITERATION     1


 AVERAGE FORCE                      0.537       TIME AVG. FORCE       0.433    
 LARGEST SCALED RESIDUAL FORCE      4.694E-06   AT NODE          2   DOF  1
  CORRESPONDING RESIDUAL FORCE      4.694E-06
 LARGEST INCREMENT OF DISP.         1.009E-03   AT NODE          1   DOF  2
 LARGEST CORRECTION TO DISP.        1.720E-06   AT NODE          2   DOF  3
          THE FORCE     EQUILIBRIUM EQUATIONS HAVE CONVERGED

 ITERATION SUMMARY FOR THE INCREMENT:   1 TOTAL ITERATIONS, OF WHICH
   0 ARE SEVERE DISCONTINUITY ITERATIONS AND  1 ARE EQUILIBRIUM ITERATIONS.

 TIME INCREMENT COMPLETED   2.16    ,  FRACTION OF STEP COMPLETED  0.942    
 STEP TIME COMPLETED        203.    ,  TOTAL TIME COMPLETED         203.    


  INCREMENT   117 STARTS. ATTEMPT NUMBER  1, TIME INCREMENT   2.16    
 
	SYMMETRIC DIRECT SPARSE SOLVER RUNNING ON
 	1 HOST:        1 MPI RANK  x 1 THREAD
 	NUMBER OF EQUATIONS:     18
 	NUMBER OF RHS:           1
 	NUMBER OF FLOPS:         2.109e+03

     CHECK POINT  START OF SOLVER     

     CHECK POINT  END OF SOLVER       

       ELAPSED USER TIME (SEC)      =   0.0000    
       ELAPSED SYSTEM TIME (SEC)    =   0.0000    
       ELAPSED TOTAL CPU TIME (SEC) =   0.0000    
       ELAPSED WALLCLOCK TIME (SEC) =            0

               CONVERGENCE CHECKS FOR EQUILIBRIUM ITERATION     1


 AVERAGE FORCE                      0.535       TIME AVG. FORCE       0.434    
 LARGEST SCALED RESIDUAL FORCE      4.637E-06   AT NODE          2   DOF  1
  CORRESPONDING RESIDUAL FORCE      4.637E-06
 LARGEST INCREMENT OF DISP.         1.009E-03   AT NODE          1   DOF  2
 LARGEST CORRECTION TO DISP.        1.693E-06   AT NODE          2   DOF  3
          THE FORCE     EQUILIBRIUM EQUATIONS HAVE CONVERGED

 ITERATION SUMMARY FOR THE INCREMENT:   1 TOTAL ITERATIONS, OF WHICH
   0 ARE SEVERE DISCONTINUITY ITERATIONS AND  1 ARE EQUILIBRIUM ITERATIONS.

 TIME INCREMENT COMPLETED   2.16    ,  FRACTION OF STEP COMPLETED  0.952    
 STEP TIME COMPLETED        205.    ,  TOTAL TIME COMPLETED         205.    


  INCREMENT   118 STARTS. ATTEMPT NUMBER  1, TIME INCREMENT   2.16    
 
	SYMMETRIC DIRECT SPARSE SOLVER RUNNING ON
 	1 HOST:        1 MPI RANK  x 1 THREAD
 	NUMBER OF EQUATIONS:     18
 	NUMBER OF RHS:           1
 	NUMBER OF FLOPS:         2.109e+03

     CHECK POINT  START OF SOLVER     

     CHECK POINT  END OF SOLVER       

       ELAPSED USER TIME (SEC)      =   0.0000    
       ELAPSED SYSTEM TIME (SEC)    =   0.0000    
       ELAPSED TOTAL CPU TIME (SEC) =   0.0000    
       ELAPSED WALLCLOCK TIME (SEC) =            0

               CONVERGENCE CHECKS FOR EQUILIBRIUM ITERATION     1


 AVERAGE FORCE                      0.534       TIME AVG. FORCE       0.434    
 LARGEST SCALED RESIDUAL FORCE      4.580E-06   AT NODE          2   DOF  1
  CORRESPONDING RESIDUAL FORCE      4.580E-06
 LARGEST INCREMENT OF DISP.         1.009E-03   AT NODE          1   DOF  2
 LARGEST CORRECTION TO DISP.        1.666E-06   AT NODE          2   DOF  3
          THE FORCE     EQUILIBRIUM EQUATIONS HAVE CONVERGED

 ITERATION SUMMARY FOR THE INCREMENT:   1 TOTAL ITERATIONS, OF WHICH
   0 ARE SEVERE DISCONTINUITY ITERATIONS AND  1 ARE EQUILIBRIUM ITERATIONS.

 TIME INCREMENT COMPLETED   2.16    ,  FRACTION OF STEP COMPLETED  0.962    
 STEP TIME COMPLETED        208.    ,  TOTAL TIME COMPLETED         208.    


  INCREMENT   119 STARTS. ATTEMPT NUMBER  1, TIME INCREMENT   2.16    
 
	SYMMETRIC DIRECT SPARSE SOLVER RUNNING ON
 	1 HOST:        1 MPI RANK  x 1 THREAD
 	NUMBER OF EQUATIONS:     18
 	NUMBER OF RHS:           1
 	NUMBER OF FLOPS:         2.109e+03

     CHECK POINT  START OF SOLVER     

     CHECK POINT  END OF SOLVER       

       ELAPSED USER TIME (SEC)      =   0.0000    
       ELAPSED SYSTEM TIME (SEC)    =   0.0000    
       ELAPSED TOTAL CPU TIME (SEC) =   0.0000    
       ELAPSED WALLCLOCK TIME (SEC) =            0

               CONVERGENCE CHECKS FOR EQUILIBRIUM ITERATION     1


 AVERAGE FORCE                      0.532       TIME AVG. FORCE       0.435    
 LARGEST SCALED RESIDUAL FORCE      4.524E-06   AT NODE          2   DOF  1
  CORRESPONDING RESIDUAL FORCE      4.524E-06
 LARGEST INCREMENT OF DISP.         1.009E-03   AT NODE          1   DOF  2
 LARGEST CORRECTION TO DISP.        1.640E-06   AT NODE          2   DOF  3
          THE FORCE     EQUILIBRIUM EQUATIONS HAVE CONVERGED

 ITERATION SUMMARY FOR THE INCREMENT:   1 TOTAL ITERATIONS, OF WHICH
   0 ARE SEVERE DISCONTINUITY ITERATIONS AND  1 ARE EQUILIBRIUM ITERATIONS.

 TIME INCREMENT COMPLETED   2.16    ,  FRACTION OF STEP COMPLETED  0.972    
 STEP TIME COMPLETED        210.    ,  TOTAL TIME COMPLETED         210.    


  INCREMENT   120 STARTS. ATTEMPT NUMBER  1, TIME INCREMENT   2.16    
 
	SYMMETRIC DIRECT SPARSE SOLVER RUNNING ON
 	1 HOST:        1 MPI RANK  x 1 THREAD
 	NUMBER OF EQUATIONS:     18
 	NUMBER OF RHS:           1
 	NUMBER OF FLOPS:         2.109e+03

     CHECK POINT  START OF SOLVER     

     CHECK POINT  END OF SOLVER       

       ELAPSED USER TIME (SEC)      =   0.0000    
       ELAPSED SYSTEM TIME (SEC)    =   0.0000    
       ELAPSED TOTAL CPU TIME (SEC) =   0.0000    
       ELAPSED WALLCLOCK TIME (SEC) =            0

               CONVERGENCE CHECKS FOR EQUILIBRIUM ITERATION     1


 AVERAGE FORCE                      0.531       TIME AVG. FORCE       0.436    
 LARGEST SCALED RESIDUAL FORCE      4.469E-06   AT NODE          2   DOF  1
  CORRESPONDING RESIDUAL FORCE      4.469E-06
 LARGEST INCREMENT OF DISP.         1.009E-03   AT NODE          1   DOF  2
 LARGEST CORRECTION TO DISP.        1.615E-06   AT NODE          2   DOF  3
          THE FORCE     EQUILIBRIUM EQUATIONS HAVE CONVERGED

 ITERATION SUMMARY FOR THE INCREMENT:   1 TOTAL ITERATIONS, OF WHICH
   0 ARE SEVERE DISCONTINUITY ITERATIONS AND  1 ARE EQUILIBRIUM ITERATIONS.

 TIME INCREMENT COMPLETED   2.16    ,  FRACTION OF STEP COMPLETED  0.982    
 STEP TIME COMPLETED        212.    ,  TOTAL TIME COMPLETED         212.    


  INCREMENT   121 STARTS. ATTEMPT NUMBER  1, TIME INCREMENT   2.16    
 
	SYMMETRIC DIRECT SPARSE SOLVER RUNNING ON
 	1 HOST:        1 MPI RANK  x 1 THREAD
 	NUMBER OF EQUATIONS:     18
 	NUMBER OF RHS:           1
 	NUMBER OF FLOPS:         2.109e+03

     CHECK POINT  START OF SOLVER     

     CHECK POINT  END OF SOLVER       

       ELAPSED USER TIME (SEC)      =   0.0000    
       ELAPSED SYSTEM TIME (SEC)    =   0.0000    
       ELAPSED TOTAL CPU TIME (SEC) =   0.0000    
       ELAPSED WALLCLOCK TIME (SEC) =            0

               CONVERGENCE CHECKS FOR EQUILIBRIUM ITERATION     1


 AVERAGE FORCE                      0.529       TIME AVG. FORCE       0.437    
 LARGEST SCALED RESIDUAL FORCE      4.414E-06   AT NODE          2   DOF  1
  CORRESPONDING RESIDUAL FORCE      4.414E-06
 LARGEST INCREMENT OF DISP.         1.009E-03   AT NODE          1   DOF  2
 LARGEST CORRECTION TO DISP.        1.591E-06   AT NODE          2   DOF  3
          THE FORCE     EQUILIBRIUM EQUATIONS HAVE CONVERGED

 ITERATION SUMMARY FOR THE INCREMENT:   1 TOTAL ITERATIONS, OF WHICH
   0 ARE SEVERE DISCONTINUITY ITERATIONS AND  1 ARE EQUILIBRIUM ITERATIONS.

 TIME INCREMENT COMPLETED   2.16    ,  FRACTION OF STEP COMPLETED  0.992    
 STEP TIME COMPLETED        214.    ,  TOTAL TIME COMPLETED         214.    


  INCREMENT   122 STARTS. ATTEMPT NUMBER  1, TIME INCREMENT   1.63    
 
	SYMMETRIC DIRECT SPARSE SOLVER RUNNING ON
 	1 HOST:        1 MPI RANK  x 1 THREAD
 	NUMBER OF EQUATIONS:     18
 	NUMBER OF RHS:           1
 	NUMBER OF FLOPS:         2.109e+03

     CHECK POINT  START OF SOLVER     

     CHECK POINT  END OF SOLVER       

       ELAPSED USER TIME (SEC)      =   0.0000    
       ELAPSED SYSTEM TIME (SEC)    =   0.0000    
       ELAPSED TOTAL CPU TIME (SEC) =   0.0000    
       ELAPSED WALLCLOCK TIME (SEC) =            0

               CONVERGENCE CHECKS FOR EQUILIBRIUM ITERATION     1


 AVERAGE FORCE                      0.528       TIME AVG. FORCE       0.438    
 LARGEST SCALED RESIDUAL FORCE     -2.896E-06   AT NODE          3   DOF  1
  CORRESPONDING RESIDUAL FORCE     -2.896E-06
 LARGEST INCREMENT OF DISP.         7.624E-04   AT NODE          1   DOF  2
 LARGEST CORRECTION TO DISP.        1.034E-06   AT NODE          2   DOF  3
          THE FORCE     EQUILIBRIUM EQUATIONS HAVE CONVERGED

 ITERATION SUMMARY FOR THE INCREMENT:   1 TOTAL ITERATIONS, OF WHICH
   0 ARE SEVERE DISCONTINUITY ITERATIONS AND  1 ARE EQUILIBRIUM ITERATIONS.

 TIME INCREMENT COMPLETED   1.63    ,  FRACTION OF STEP COMPLETED   1.00    
 STEP TIME COMPLETED        216.    ,  TOTAL TIME COMPLETED         216.    


          THE ANALYSIS HAS BEEN COMPLETED



     ANALYSIS SUMMARY:
     TOTAL OF        122  INCREMENTS
                       0  CUTBACKS IN AUTOMATIC INCREMENTATION
                     126  ITERATIONS INCLUDING CONTACT ITERATIONS IF PRESENT
                     126  PASSES THROUGH THE EQUATION SOLVER OF WHICH 
                     126  INVOLVE MATRIX DECOMPOSITION, INCLUDING
                       0  DECOMPOSITION(S) OF THE MASS MATRIX
                       1  REORDERING OF EQUATIONS TO MINIMIZE WAVEFRONT
                       0  ADDITIONAL RESIDUAL EVALUATIONS FOR LINE SEARCHES
                       0  ADDITIONAL OPERATOR EVALUATIONS FOR LINE SEARCHES
                       4  WARNING MESSAGES DURING USER INPUT PROCESSING
                       0  WARNING MESSAGES DURING ANALYSIS
                       0  ANALYSIS WARNINGS ARE NUMERICAL PROBLEM MESSAGES
                       0  ANALYSIS WARNINGS ARE NEGATIVE EIGENVALUE MESSAGES
                       0  ERROR MESSAGES



     JOB TIME SUMMARY
       USER TIME (SEC)      =     0.40    
       SYSTEM TIME (SEC)    =     0.20    
       TOTAL CPU TIME (SEC) =     0.60    
       WALLCLOCK TIME (SEC) =            4
       MEMORY PEAK (GB)     =            0
