1

   Abaqus 2023                                  Date 23-Jul-2024   Time 18:01:39
   For use by ETH ZUERICH under license from Dassault Systemes or its subsidiary.

                                                                                 
                                                                                 
 STEP    1     INCREMENT     1     STEP TIME    0.00    


                        S T E P       1     S T A T I C   A N A L Y S I S


                                                                                          

     AUTOMATIC TIME CONTROL WITH -
          A SUGGESTED INITIAL TIME INCREMENT OF                2.512E-04
          AND A TOTAL TIME PERIOD OF                            251.    
          THE MINIMUM TIME INCREMENT ALLOWED IS                2.512E-04
          THE MAXIMUM TIME INCREMENT ALLOWED IS                 2.51    

     LINEAR EQUATION SOLVER TYPE         DIRECT SPARSE

 CONVERGENCE TOLERANCE PARAMETERS FOR FORCE    
     CRITERION FOR RESIDUAL FORCE     FOR A NONLINEAR PROBLEM          5.000E-03
     CRITERION FOR DISP.    CORRECTION IN A NONLINEAR PROBLEM          1.000E-02
     INITIAL VALUE OF TIME AVERAGE FORCE                               1.000E-02
     AVERAGE FORCE     IS TIME AVERAGE FORCE    
     ALTERNATE CRIT. FOR RESIDUAL FORCE     FOR A NONLINEAR PROBLEM    2.000E-02
     CRITERION FOR ZERO FORCE     RELATIVE TO TIME AVRG. FORCE         1.000E-05
     CRITERION FOR RESIDUAL FORCE     WHEN THERE IS ZERO FLUX          1.000E-05
     CRITERION FOR DISP.    CORRECTION WHEN THERE IS ZERO FLUX         1.000E-03
     CRITERION FOR RESIDUAL FORCE     FOR A LINEAR INCREMENT           1.000E-08
     FIELD CONVERSION RATIO                                             1.00    
     CRITERION FOR ZERO FORCE     REL. TO TIME AVRG. MAX. FORCE        1.000E-05
     CRITERION FOR ZERO DISP.    RELATIVE TO CHARACTERISTIC LENGTH     1.000E-08

     VOLUMETRIC STRAIN COMPATIBILITY TOLERANCE FOR HYBRID SOLIDS       1.000E-05
     AXIAL STRAIN COMPATIBILITY TOLERANCE FOR HYBRID BEAMS             1.000E-05
     TRANS. SHEAR STRAIN COMPATIBILITY TOLERANCE FOR HYBRID BEAMS      1.000E-05
     SOFT CONTACT CONSTRAINT COMPATIBILITY TOLERANCE FOR P>P0          5.000E-03
     SOFT CONTACT CONSTRAINT COMPATIBILITY TOLERANCE FOR P=0.0         0.100    
     CONTACT FORCE ERROR TOLERANCE FOR CONVERT SDI=YES                 1.00    
     DISPLACEMENT COMPATIBILITY TOLERANCE FOR DCOUP ELEMENTS           1.000E-05
     ROTATION COMPATIBILITY TOLERANCE FOR DCOUP ELEMENTS               1.000E-05

 EQUILIBRIUM WILL BE CHECKED FOR SEVERE DISCONTINUITY ITERATIONS

 TIME INCREMENTATION CONTROL PARAMETERS:
     FIRST EQUILIBRIUM ITERATION FOR CONSECUTIVE DIVERGENCE CHECK              4
     EQUILIBRIUM ITERATION AT WHICH LOG. CONVERGENCE RATE CHECK BEGINS         8
     EQUILIBRIUM ITERATION AFTER WHICH ALTERNATE RESIDUAL IS USED              9
     MAXIMUM EQUILIBRIUM ITERATIONS ALLOWED                                   16
     EQUILIBRIUM ITERATION COUNT FOR CUT-BACK IN NEXT INCREMENT               10
     MAXIMUM EQUILIB. ITERS IN TWO INCREMENTS FOR TIME INCREMENT INCREASE      4
     MAXIMUM ITERATIONS FOR SEVERE DISCONTINUITIES                            50
     MAXIMUM ATTEMPTS ALLOWED IN AN INCREMENT                                  5
     MAXIMUM DISCON. ITERS IN TWO INCREMENTS FOR TIME INCREMENT INCREASE      50
     MAXIMUM CONTACT AUGMENTATIONS FOR *SURFACE BEHAVIOR,AUGMENTED LAGRANGE   50
     CUT-BACK FACTOR AFTER DIVERGENCE                                 0.2500    
     CUT-BACK FACTOR FOR TOO SLOW CONVERGENCE                         0.5000    
     CUT-BACK FACTOR AFTER TOO MANY EQUILIBRIUM ITERATIONS            0.7500    
     CUT-BACK FACTOR AFTER TOO MANY SEVERE DISCONTINUITY ITERATIONS   0.2500    
     CUT-BACK FACTOR AFTER PROBLEMS IN ELEMENT ASSEMBLY               0.2500    
     INCREASE FACTOR AFTER TWO INCREMENTS THAT CONVERGE QUICKLY        1.500    
     MAX. TIME INCREMENT INCREASE FACTOR ALLOWED                       1.500    
     MAX. TIME INCREMENT INCREASE FACTOR ALLOWED (DYNAMICS)            1.250    
     MAX. TIME INCREMENT INCREASE FACTOR ALLOWED (DIFFUSION)           2.000    
     MINIMUM TIME INCREMENT RATIO FOR EXTRAPOLATION TO OCCUR          0.1000    
     MAX. RATIO OF TIME INCREMENT TO STABILITY LIMIT                   1.000    
     FRACTION OF STABILITY LIMIT FOR NEW TIME INCREMENT               0.9500    
     TIME INCREMENT INCREASE FACTOR BEFORE A TIME POINT                1.000    
     GLOBAL STABILIZATION CONTROL IS NOT USED

          PRINT OF INCREMENT NUMBER, TIME, ETC., EVERY    1  INCREMENTS

     THE MAXIMUM NUMBER OF INCREMENTS IN THIS STEP IS                    1000

          LARGE DISPLACEMENT THEORY WILL BE USED

     LINEAR EXTRAPOLATION WILL BE USED

     CHARACTERISTIC ELEMENT LENGTH     0.100    

     DETAILS REGARDING ACTUAL SOLUTION WAVEFRONT REQUESTED

     DETAILED OUTPUT OF DIAGNOSTICS TO DATABASE REQUESTED

     PRINT OF INCREMENT NUMBER, TIME, ETC., TO THE MESSAGE FILE EVERY     1  INCREMENTS

     COLLECTING MODEL CONSTRAINT INFORMATION FOR OVERCONSTRAINT CHECKS

     COLLECTING STEP CONSTRAINT INFORMATION FOR OVERCONSTRAINT CHECKS


  INCREMENT     1 STARTS. ATTEMPT NUMBER  1, TIME INCREMENT  2.512E-04
 
	SYMMETRIC DIRECT SPARSE SOLVER RUNNING ON
 	1 HOST:        1 MPI RANK  x 1 THREAD
 	NUMBER OF EQUATIONS:     18
 	NUMBER OF RHS:           1
 	NUMBER OF FLOPS:         2.109e+03

     CHECK POINT  START OF SOLVER     

     CHECK POINT  END OF SOLVER       

       ELAPSED USER TIME (SEC)      =   0.0000    
       ELAPSED SYSTEM TIME (SEC)    =   0.0000    
       ELAPSED TOTAL CPU TIME (SEC) =   0.0000    
       ELAPSED WALLCLOCK TIME (SEC) =            0

               CONVERGENCE CHECKS FOR EQUILIBRIUM ITERATION     1


 AVERAGE FORCE                      6.268E-06   TIME AVG. FORCE       6.268E-06
 LARGEST SCALED RESIDUAL FORCE      7.051E-13   AT NODE          5   DOF  3
  CORRESPONDING RESIDUAL FORCE      7.051E-13
 LARGEST INCREMENT OF DISP.         1.000E-08   AT NODE          1   DOF  2
 LARGEST CORRECTION TO DISP.        1.000E-08   AT NODE          1   DOF  2
          DISP.    CORRECTION TOO LARGE COMPARED TO DISP.    INCREMENT
 
	SYMMETRIC DIRECT SPARSE SOLVER RUNNING ON
 	1 HOST:        1 MPI RANK  x 1 THREAD
 	NUMBER OF EQUATIONS:     18
 	NUMBER OF RHS:           1
 	NUMBER OF FLOPS:         2.109e+03

     CHECK POINT  START OF SOLVER     

     CHECK POINT  END OF SOLVER       

       ELAPSED USER TIME (SEC)      =   0.0000    
       ELAPSED SYSTEM TIME (SEC)    =   0.0000    
       ELAPSED TOTAL CPU TIME (SEC) =   0.0000    
       ELAPSED WALLCLOCK TIME (SEC) =            0

               CONVERGENCE CHECKS FOR EQUILIBRIUM ITERATION     2


 AVERAGE FORCE                      6.268E-06   TIME AVG. FORCE       6.268E-06
 LARGEST SCALED RESIDUAL FORCE      1.741E-21   AT NODE          4   DOF  1
  CORRESPONDING RESIDUAL FORCE      1.741E-21
 LARGEST INCREMENT OF DISP.         1.000E-08   AT NODE          1   DOF  2
 LARGEST CORRECTION TO DISP.        1.950E-16   AT NODE          5   DOF  3
          THE FORCE     EQUILIBRIUM EQUATIONS HAVE CONVERGED

 ITERATION SUMMARY FOR THE INCREMENT:   2 TOTAL ITERATIONS, OF WHICH
   0 ARE SEVERE DISCONTINUITY ITERATIONS AND  2 ARE EQUILIBRIUM ITERATIONS.

 TIME INCREMENT COMPLETED  2.512E-04,  FRACTION OF STEP COMPLETED  1.000E-06
 STEP TIME COMPLETED       2.512E-04,  TOTAL TIME COMPLETED        2.512E-04


  INCREMENT     2 STARTS. ATTEMPT NUMBER  1, TIME INCREMENT  2.512E-04
 
	SYMMETRIC DIRECT SPARSE SOLVER RUNNING ON
 	1 HOST:        1 MPI RANK  x 1 THREAD
 	NUMBER OF EQUATIONS:     18
 	NUMBER OF RHS:           1
 	NUMBER OF FLOPS:         2.109e+03

     CHECK POINT  START OF SOLVER     

     CHECK POINT  END OF SOLVER       

       ELAPSED USER TIME (SEC)      =   0.0000    
       ELAPSED SYSTEM TIME (SEC)    =   0.0000    
       ELAPSED TOTAL CPU TIME (SEC) =   0.0000    
       ELAPSED WALLCLOCK TIME (SEC) =            0

               CONVERGENCE CHECKS FOR EQUILIBRIUM ITERATION     1


 AVERAGE FORCE                      3.761E-05   TIME AVG. FORCE       2.194E-05
 LARGEST SCALED RESIDUAL FORCE      5.585E-21   AT NODE          2   DOF  1
  CORRESPONDING RESIDUAL FORCE      5.585E-21
 LARGEST INCREMENT OF DISP.         1.000E-08   AT NODE          1   DOF  2
 LARGEST CORRECTION TO DISP.        3.900E-16   AT NODE          5   DOF  3
          THE FORCE     EQUILIBRIUM RESPONSE WAS LINEAR IN THIS INCREMENT
          TIME INCREMENT MAY NOW INCREASE TO    3.767E-04

 ITERATION SUMMARY FOR THE INCREMENT:   1 TOTAL ITERATIONS, OF WHICH
   0 ARE SEVERE DISCONTINUITY ITERATIONS AND  1 ARE EQUILIBRIUM ITERATIONS.

 TIME INCREMENT COMPLETED  2.512E-04,  FRACTION OF STEP COMPLETED  2.000E-06
 STEP TIME COMPLETED       5.023E-04,  TOTAL TIME COMPLETED        5.023E-04


  INCREMENT     3 STARTS. ATTEMPT NUMBER  1, TIME INCREMENT  3.767E-04
 
	SYMMETRIC DIRECT SPARSE SOLVER RUNNING ON
 	1 HOST:        1 MPI RANK  x 1 THREAD
 	NUMBER OF EQUATIONS:     18
 	NUMBER OF RHS:           1
 	NUMBER OF FLOPS:         2.109e+03

     CHECK POINT  START OF SOLVER     

     CHECK POINT  END OF SOLVER       

       ELAPSED USER TIME (SEC)      =   0.0000    
       ELAPSED SYSTEM TIME (SEC)    =   0.0000    
       ELAPSED TOTAL CPU TIME (SEC) =   0.0000    
       ELAPSED WALLCLOCK TIME (SEC) =            0

               CONVERGENCE CHECKS FOR EQUILIBRIUM ITERATION     1


 AVERAGE FORCE                      6.581E-05   TIME AVG. FORCE       3.656E-05
 LARGEST SCALED RESIDUAL FORCE      8.068E-21   AT NODE          3   DOF  1
  CORRESPONDING RESIDUAL FORCE      8.068E-21
 LARGEST INCREMENT OF DISP.         1.500E-08   AT NODE          1   DOF  2
 LARGEST CORRECTION TO DISP.        7.312E-16   AT NODE          2   DOF  1
          THE FORCE     EQUILIBRIUM RESPONSE WAS LINEAR IN THIS INCREMENT
          TIME INCREMENT MAY NOW INCREASE TO    5.651E-04

 ITERATION SUMMARY FOR THE INCREMENT:   1 TOTAL ITERATIONS, OF WHICH
   0 ARE SEVERE DISCONTINUITY ITERATIONS AND  1 ARE EQUILIBRIUM ITERATIONS.

 TIME INCREMENT COMPLETED  3.767E-04,  FRACTION OF STEP COMPLETED  3.500E-06
 STEP TIME COMPLETED       8.790E-04,  TOTAL TIME COMPLETED        8.790E-04


  INCREMENT     4 STARTS. ATTEMPT NUMBER  1, TIME INCREMENT  5.651E-04
 
	SYMMETRIC DIRECT SPARSE SOLVER RUNNING ON
 	1 HOST:        1 MPI RANK  x 1 THREAD
 	NUMBER OF EQUATIONS:     18
 	NUMBER OF RHS:           1
 	NUMBER OF FLOPS:         2.109e+03

     CHECK POINT  START OF SOLVER     

     CHECK POINT  END OF SOLVER       

       ELAPSED USER TIME (SEC)      =   0.0000    
       ELAPSED SYSTEM TIME (SEC)    =   0.0000    
       ELAPSED TOTAL CPU TIME (SEC) =   0.0000    
       ELAPSED WALLCLOCK TIME (SEC) =            0

               CONVERGENCE CHECKS FOR EQUILIBRIUM ITERATION     1


 AVERAGE FORCE                      1.081E-04   TIME AVG. FORCE       5.445E-05
 LARGEST SCALED RESIDUAL FORCE      2.863E-20   AT NODE          2   DOF  1
  CORRESPONDING RESIDUAL FORCE      2.863E-20
 LARGEST INCREMENT OF DISP.         2.250E-08   AT NODE          1   DOF  2
 LARGEST CORRECTION TO DISP.        1.645E-15   AT NODE          3   DOF  1
          THE FORCE     EQUILIBRIUM RESPONSE WAS LINEAR IN THIS INCREMENT
          TIME INCREMENT MAY NOW INCREASE TO    8.476E-04

 ITERATION SUMMARY FOR THE INCREMENT:   1 TOTAL ITERATIONS, OF WHICH
   0 ARE SEVERE DISCONTINUITY ITERATIONS AND  1 ARE EQUILIBRIUM ITERATIONS.

 TIME INCREMENT COMPLETED  5.651E-04,  FRACTION OF STEP COMPLETED  5.750E-06
 STEP TIME COMPLETED       1.444E-03,  TOTAL TIME COMPLETED        1.444E-03


  INCREMENT     5 STARTS. ATTEMPT NUMBER  1, TIME INCREMENT  8.476E-04
 
	SYMMETRIC DIRECT SPARSE SOLVER RUNNING ON
 	1 HOST:        1 MPI RANK  x 1 THREAD
 	NUMBER OF EQUATIONS:     18
 	NUMBER OF RHS:           1
 	NUMBER OF FLOPS:         2.109e+03

     CHECK POINT  START OF SOLVER     

     CHECK POINT  END OF SOLVER       

       ELAPSED USER TIME (SEC)      =   0.0000    
       ELAPSED SYSTEM TIME (SEC)    =   0.0000    
       ELAPSED TOTAL CPU TIME (SEC) =   0.0000    
       ELAPSED WALLCLOCK TIME (SEC) =            0

               CONVERGENCE CHECKS FOR EQUILIBRIUM ITERATION     1


 AVERAGE FORCE                      1.716E-04   TIME AVG. FORCE       7.788E-05
 LARGEST SCALED RESIDUAL FORCE     -2.258E-20   AT NODE          2   DOF  3
  CORRESPONDING RESIDUAL FORCE     -2.258E-20
 LARGEST INCREMENT OF DISP.         3.375E-08   AT NODE          1   DOF  2
 LARGEST CORRECTION TO DISP.        3.702E-15   AT NODE          4   DOF  1
          THE FORCE     EQUILIBRIUM RESPONSE WAS LINEAR IN THIS INCREMENT
          TIME INCREMENT MAY NOW INCREASE TO    1.271E-03

 ITERATION SUMMARY FOR THE INCREMENT:   1 TOTAL ITERATIONS, OF WHICH
   0 ARE SEVERE DISCONTINUITY ITERATIONS AND  1 ARE EQUILIBRIUM ITERATIONS.

 TIME INCREMENT COMPLETED  8.476E-04,  FRACTION OF STEP COMPLETED  9.125E-06
 STEP TIME COMPLETED       2.292E-03,  TOTAL TIME COMPLETED        2.292E-03


  INCREMENT     6 STARTS. ATTEMPT NUMBER  1, TIME INCREMENT  1.271E-03
 
	SYMMETRIC DIRECT SPARSE SOLVER RUNNING ON
 	1 HOST:        1 MPI RANK  x 1 THREAD
 	NUMBER OF EQUATIONS:     18
 	NUMBER OF RHS:           1
 	NUMBER OF FLOPS:         2.109e+03

     CHECK POINT  START OF SOLVER     

     CHECK POINT  END OF SOLVER       

       ELAPSED USER TIME (SEC)      =   0.0000    
       ELAPSED SYSTEM TIME (SEC)    =   0.0000    
       ELAPSED TOTAL CPU TIME (SEC) =   0.0000    
       ELAPSED WALLCLOCK TIME (SEC) =            0

               CONVERGENCE CHECKS FOR EQUILIBRIUM ITERATION     1


 AVERAGE FORCE                      2.668E-04   TIME AVG. FORCE       1.094E-04
 LARGEST SCALED RESIDUAL FORCE     -1.280E-20   AT NODE          5   DOF  3
  CORRESPONDING RESIDUAL FORCE     -1.280E-20
 LARGEST INCREMENT OF DISP.         5.063E-08   AT NODE          1   DOF  2
 LARGEST CORRECTION TO DISP.        8.329E-15   AT NODE          6   DOF  3
          THE FORCE     EQUILIBRIUM RESPONSE WAS LINEAR IN THIS INCREMENT
          TIME INCREMENT MAY NOW INCREASE TO    1.907E-03

 ITERATION SUMMARY FOR THE INCREMENT:   1 TOTAL ITERATIONS, OF WHICH
   0 ARE SEVERE DISCONTINUITY ITERATIONS AND  1 ARE EQUILIBRIUM ITERATIONS.

 TIME INCREMENT COMPLETED  1.271E-03,  FRACTION OF STEP COMPLETED  1.419E-05
 STEP TIME COMPLETED       3.563E-03,  TOTAL TIME COMPLETED        3.563E-03


  INCREMENT     7 STARTS. ATTEMPT NUMBER  1, TIME INCREMENT  1.907E-03
 
	SYMMETRIC DIRECT SPARSE SOLVER RUNNING ON
 	1 HOST:        1 MPI RANK  x 1 THREAD
 	NUMBER OF EQUATIONS:     18
 	NUMBER OF RHS:           1
 	NUMBER OF FLOPS:         2.109e+03

     CHECK POINT  START OF SOLVER     

     CHECK POINT  END OF SOLVER       

       ELAPSED USER TIME (SEC)      =   0.0000    
       ELAPSED SYSTEM TIME (SEC)    =   0.0000    
       ELAPSED TOTAL CPU TIME (SEC) =   0.0000    
       ELAPSED WALLCLOCK TIME (SEC) =            0

               CONVERGENCE CHECKS FOR EQUILIBRIUM ITERATION     1


 AVERAGE FORCE                      4.096E-04   TIME AVG. FORCE       1.522E-04
 LARGEST SCALED RESIDUAL FORCE     -3.909E-20   AT NODE          3   DOF  1
  CORRESPONDING RESIDUAL FORCE     -3.909E-20
 LARGEST INCREMENT OF DISP.         7.594E-08   AT NODE          1   DOF  2
 LARGEST CORRECTION TO DISP.        1.874E-14   AT NODE          4   DOF  1
          THE FORCE     EQUILIBRIUM RESPONSE WAS LINEAR IN THIS INCREMENT
          TIME INCREMENT MAY NOW INCREASE TO    2.861E-03

 ITERATION SUMMARY FOR THE INCREMENT:   1 TOTAL ITERATIONS, OF WHICH
   0 ARE SEVERE DISCONTINUITY ITERATIONS AND  1 ARE EQUILIBRIUM ITERATIONS.

 TIME INCREMENT COMPLETED  1.907E-03,  FRACTION OF STEP COMPLETED  2.178E-05
 STEP TIME COMPLETED       5.470E-03,  TOTAL TIME COMPLETED        5.470E-03


  INCREMENT     8 STARTS. ATTEMPT NUMBER  1, TIME INCREMENT  2.861E-03
 
	SYMMETRIC DIRECT SPARSE SOLVER RUNNING ON
 	1 HOST:        1 MPI RANK  x 1 THREAD
 	NUMBER OF EQUATIONS:     18
 	NUMBER OF RHS:           1
 	NUMBER OF FLOPS:         2.109e+03

     CHECK POINT  START OF SOLVER     

     CHECK POINT  END OF SOLVER       

       ELAPSED USER TIME (SEC)      =   0.0000    
       ELAPSED SYSTEM TIME (SEC)    =   0.0000    
       ELAPSED TOTAL CPU TIME (SEC) =   0.0000    
       ELAPSED WALLCLOCK TIME (SEC) =            0

               CONVERGENCE CHECKS FOR EQUILIBRIUM ITERATION     1


 AVERAGE FORCE                      6.238E-04   TIME AVG. FORCE       2.112E-04
 LARGEST SCALED RESIDUAL FORCE     -6.575E-20   AT NODE          4   DOF  1
  CORRESPONDING RESIDUAL FORCE     -6.575E-20
 LARGEST INCREMENT OF DISP.         1.139E-07   AT NODE          1   DOF  2
 LARGEST CORRECTION TO DISP.        4.217E-14   AT NODE          2   DOF  1
          THE FORCE     EQUILIBRIUM RESPONSE WAS LINEAR IN THIS INCREMENT
          TIME INCREMENT MAY NOW INCREASE TO    4.291E-03

 ITERATION SUMMARY FOR THE INCREMENT:   1 TOTAL ITERATIONS, OF WHICH
   0 ARE SEVERE DISCONTINUITY ITERATIONS AND  1 ARE EQUILIBRIUM ITERATIONS.

 TIME INCREMENT COMPLETED  2.861E-03,  FRACTION OF STEP COMPLETED  3.317E-05
 STEP TIME COMPLETED       8.331E-03,  TOTAL TIME COMPLETED        8.331E-03


  INCREMENT     9 STARTS. ATTEMPT NUMBER  1, TIME INCREMENT  4.291E-03
 
	SYMMETRIC DIRECT SPARSE SOLVER RUNNING ON
 	1 HOST:        1 MPI RANK  x 1 THREAD
 	NUMBER OF EQUATIONS:     18
 	NUMBER OF RHS:           1
 	NUMBER OF FLOPS:         2.109e+03

     CHECK POINT  START OF SOLVER     

     CHECK POINT  END OF SOLVER       

       ELAPSED USER TIME (SEC)      =   0.0000    
       ELAPSED SYSTEM TIME (SEC)    =   0.0000    
       ELAPSED TOTAL CPU TIME (SEC) =   0.0000    
       ELAPSED WALLCLOCK TIME (SEC) =            0

               CONVERGENCE CHECKS FOR EQUILIBRIUM ITERATION     1


 AVERAGE FORCE                      9.450E-04   TIME AVG. FORCE       2.927E-04
 LARGEST SCALED RESIDUAL FORCE     -1.337E-19   AT NODE          2   DOF  3
  CORRESPONDING RESIDUAL FORCE     -1.337E-19
 LARGEST INCREMENT OF DISP.         1.709E-07   AT NODE          1   DOF  2
 LARGEST CORRECTION TO DISP.        9.488E-14   AT NODE          2   DOF  3
          THE FORCE     EQUILIBRIUM RESPONSE WAS LINEAR IN THIS INCREMENT
          TIME INCREMENT MAY NOW INCREASE TO    6.437E-03

 ITERATION SUMMARY FOR THE INCREMENT:   1 TOTAL ITERATIONS, OF WHICH
   0 ARE SEVERE DISCONTINUITY ITERATIONS AND  1 ARE EQUILIBRIUM ITERATIONS.

 TIME INCREMENT COMPLETED  4.291E-03,  FRACTION OF STEP COMPLETED  5.026E-05
 STEP TIME COMPLETED       1.262E-02,  TOTAL TIME COMPLETED        1.262E-02


  INCREMENT    10 STARTS. ATTEMPT NUMBER  1, TIME INCREMENT  6.437E-03
 
	SYMMETRIC DIRECT SPARSE SOLVER RUNNING ON
 	1 HOST:        1 MPI RANK  x 1 THREAD
 	NUMBER OF EQUATIONS:     18
 	NUMBER OF RHS:           1
 	NUMBER OF FLOPS:         2.109e+03

     CHECK POINT  START OF SOLVER     

     CHECK POINT  END OF SOLVER       

       ELAPSED USER TIME (SEC)      =   0.0000    
       ELAPSED SYSTEM TIME (SEC)    =   0.0000    
       ELAPSED TOTAL CPU TIME (SEC) =   0.0000    
       ELAPSED WALLCLOCK TIME (SEC) =            0

               CONVERGENCE CHECKS FOR EQUILIBRIUM ITERATION     1


 AVERAGE FORCE                      1.427E-03   TIME AVG. FORCE       4.061E-04
 LARGEST SCALED RESIDUAL FORCE     -1.882E-19   AT NODE          3   DOF  1
  CORRESPONDING RESIDUAL FORCE     -1.882E-19
 LARGEST INCREMENT OF DISP.         2.563E-07   AT NODE          1   DOF  2
 LARGEST CORRECTION TO DISP.        2.135E-13   AT NODE          3   DOF  1
          THE FORCE     EQUILIBRIUM RESPONSE WAS LINEAR IN THIS INCREMENT
          TIME INCREMENT MAY NOW INCREASE TO    9.655E-03

 ITERATION SUMMARY FOR THE INCREMENT:   1 TOTAL ITERATIONS, OF WHICH
   0 ARE SEVERE DISCONTINUITY ITERATIONS AND  1 ARE EQUILIBRIUM ITERATIONS.

 TIME INCREMENT COMPLETED  6.437E-03,  FRACTION OF STEP COMPLETED  7.589E-05
 STEP TIME COMPLETED       1.906E-02,  TOTAL TIME COMPLETED        1.906E-02


  INCREMENT    11 STARTS. ATTEMPT NUMBER  1, TIME INCREMENT  9.655E-03
 
	SYMMETRIC DIRECT SPARSE SOLVER RUNNING ON
 	1 HOST:        1 MPI RANK  x 1 THREAD
 	NUMBER OF EQUATIONS:     18
 	NUMBER OF RHS:           1
 	NUMBER OF FLOPS:         2.109e+03

     CHECK POINT  START OF SOLVER     

     CHECK POINT  END OF SOLVER       

       ELAPSED USER TIME (SEC)      =   0.0000    
       ELAPSED SYSTEM TIME (SEC)    =   0.0000    
       ELAPSED TOTAL CPU TIME (SEC) =   0.0000    
       ELAPSED WALLCLOCK TIME (SEC) =            0

               CONVERGENCE CHECKS FOR EQUILIBRIUM ITERATION     1


 AVERAGE FORCE                      2.150E-03   TIME AVG. FORCE       5.647E-04
 LARGEST SCALED RESIDUAL FORCE     -1.165E-19   AT NODE          5   DOF  3
  CORRESPONDING RESIDUAL FORCE     -1.165E-19
 LARGEST INCREMENT OF DISP.         3.844E-07   AT NODE          1   DOF  2
 LARGEST CORRECTION TO DISP.        4.803E-13   AT NODE          5   DOF  3
          THE FORCE     EQUILIBRIUM RESPONSE WAS LINEAR IN THIS INCREMENT
          TIME INCREMENT MAY NOW INCREASE TO    1.448E-02

 ITERATION SUMMARY FOR THE INCREMENT:   1 TOTAL ITERATIONS, OF WHICH
   0 ARE SEVERE DISCONTINUITY ITERATIONS AND  1 ARE EQUILIBRIUM ITERATIONS.

 TIME INCREMENT COMPLETED  9.655E-03,  FRACTION OF STEP COMPLETED  1.143E-04
 STEP TIME COMPLETED       2.871E-02,  TOTAL TIME COMPLETED        2.871E-02


  INCREMENT    12 STARTS. ATTEMPT NUMBER  1, TIME INCREMENT  1.448E-02
 
	SYMMETRIC DIRECT SPARSE SOLVER RUNNING ON
 	1 HOST:        1 MPI RANK  x 1 THREAD
 	NUMBER OF EQUATIONS:     18
 	NUMBER OF RHS:           1
 	NUMBER OF FLOPS:         2.109e+03

     CHECK POINT  START OF SOLVER     

     CHECK POINT  END OF SOLVER       

       ELAPSED USER TIME (SEC)      =   0.0000    
       ELAPSED SYSTEM TIME (SEC)    =   0.0000    
       ELAPSED TOTAL CPU TIME (SEC) =   0.0000    
       ELAPSED WALLCLOCK TIME (SEC) =            0

               CONVERGENCE CHECKS FOR EQUILIBRIUM ITERATION     1


 AVERAGE FORCE                      3.234E-03   TIME AVG. FORCE       7.871E-04
 LARGEST SCALED RESIDUAL FORCE     -2.792E-19   AT NODE          4   DOF  1
  CORRESPONDING RESIDUAL FORCE     -2.792E-19
 LARGEST INCREMENT OF DISP.         5.767E-07   AT NODE          1   DOF  2
 LARGEST CORRECTION TO DISP.        1.081E-12   AT NODE          3   DOF  1
          THE FORCE     EQUILIBRIUM RESPONSE WAS LINEAR IN THIS INCREMENT
          TIME INCREMENT MAY NOW INCREASE TO    2.172E-02

 ITERATION SUMMARY FOR THE INCREMENT:   1 TOTAL ITERATIONS, OF WHICH
   0 ARE SEVERE DISCONTINUITY ITERATIONS AND  1 ARE EQUILIBRIUM ITERATIONS.

 TIME INCREMENT COMPLETED  1.448E-02,  FRACTION OF STEP COMPLETED  1.720E-04
 STEP TIME COMPLETED       4.320E-02,  TOTAL TIME COMPLETED        4.320E-02


  INCREMENT    13 STARTS. ATTEMPT NUMBER  1, TIME INCREMENT  2.172E-02
 
	SYMMETRIC DIRECT SPARSE SOLVER RUNNING ON
 	1 HOST:        1 MPI RANK  x 1 THREAD
 	NUMBER OF EQUATIONS:     18
 	NUMBER OF RHS:           1
 	NUMBER OF FLOPS:         2.109e+03

     CHECK POINT  START OF SOLVER     

     CHECK POINT  END OF SOLVER       

       ELAPSED USER TIME (SEC)      =   0.0000    
       ELAPSED SYSTEM TIME (SEC)    =   0.0000    
       ELAPSED TOTAL CPU TIME (SEC) =   0.0000    
       ELAPSED WALLCLOCK TIME (SEC) =            0

               CONVERGENCE CHECKS FOR EQUILIBRIUM ITERATION     1


 AVERAGE FORCE                      4.860E-03   TIME AVG. FORCE       1.100E-03
 LARGEST SCALED RESIDUAL FORCE     -4.554E-19   AT NODE          4   DOF  1
  CORRESPONDING RESIDUAL FORCE     -4.554E-19
 LARGEST INCREMENT OF DISP.         8.650E-07   AT NODE          1   DOF  2
 LARGEST CORRECTION TO DISP.        2.431E-12   AT NODE          2   DOF  3
          THE FORCE     EQUILIBRIUM RESPONSE WAS LINEAR IN THIS INCREMENT
          TIME INCREMENT MAY NOW INCREASE TO    3.259E-02

 ITERATION SUMMARY FOR THE INCREMENT:   1 TOTAL ITERATIONS, OF WHICH
   0 ARE SEVERE DISCONTINUITY ITERATIONS AND  1 ARE EQUILIBRIUM ITERATIONS.

 TIME INCREMENT COMPLETED  2.172E-02,  FRACTION OF STEP COMPLETED  2.585E-04
 STEP TIME COMPLETED       6.492E-02,  TOTAL TIME COMPLETED        6.492E-02


  INCREMENT    14 STARTS. ATTEMPT NUMBER  1, TIME INCREMENT  3.259E-02
 
	SYMMETRIC DIRECT SPARSE SOLVER RUNNING ON
 	1 HOST:        1 MPI RANK  x 1 THREAD
 	NUMBER OF EQUATIONS:     18
 	NUMBER OF RHS:           1
 	NUMBER OF FLOPS:         2.109e+03

     CHECK POINT  START OF SOLVER     

     CHECK POINT  END OF SOLVER       

       ELAPSED USER TIME (SEC)      =   0.0000    
       ELAPSED SYSTEM TIME (SEC)    =   0.0000    
       ELAPSED TOTAL CPU TIME (SEC) =   0.0000    
       ELAPSED WALLCLOCK TIME (SEC) =            0

               CONVERGENCE CHECKS FOR EQUILIBRIUM ITERATION     1


 AVERAGE FORCE                      7.300E-03   TIME AVG. FORCE       1.543E-03
 LARGEST SCALED RESIDUAL FORCE      8.162E-19   AT NODE          1   DOF  3
  CORRESPONDING RESIDUAL FORCE      8.162E-19
 LARGEST INCREMENT OF DISP.         1.297E-06   AT NODE          1   DOF  2
 LARGEST CORRECTION TO DISP.        5.471E-12   AT NODE          1   DOF  1
          THE FORCE     EQUILIBRIUM RESPONSE WAS LINEAR IN THIS INCREMENT
          TIME INCREMENT MAY NOW INCREASE TO    4.888E-02

 ITERATION SUMMARY FOR THE INCREMENT:   1 TOTAL ITERATIONS, OF WHICH
   0 ARE SEVERE DISCONTINUITY ITERATIONS AND  1 ARE EQUILIBRIUM ITERATIONS.

 TIME INCREMENT COMPLETED  3.259E-02,  FRACTION OF STEP COMPLETED  3.882E-04
 STEP TIME COMPLETED       9.751E-02,  TOTAL TIME COMPLETED        9.751E-02


  INCREMENT    15 STARTS. ATTEMPT NUMBER  1, TIME INCREMENT  4.888E-02
 
	SYMMETRIC DIRECT SPARSE SOLVER RUNNING ON
 	1 HOST:        1 MPI RANK  x 1 THREAD
 	NUMBER OF EQUATIONS:     18
 	NUMBER OF RHS:           1
 	NUMBER OF FLOPS:         2.109e+03

     CHECK POINT  START OF SOLVER     

     CHECK POINT  END OF SOLVER       

       ELAPSED USER TIME (SEC)      =   0.0000    
       ELAPSED SYSTEM TIME (SEC)    =   0.0000    
       ELAPSED TOTAL CPU TIME (SEC) =   0.0000    
       ELAPSED WALLCLOCK TIME (SEC) =            0

               CONVERGENCE CHECKS FOR EQUILIBRIUM ITERATION     1


 AVERAGE FORCE                      1.096E-02   TIME AVG. FORCE       2.171E-03
 LARGEST SCALED RESIDUAL FORCE      4.837E-18   AT NODE          3   DOF  1
  CORRESPONDING RESIDUAL FORCE      4.837E-18
 LARGEST INCREMENT OF DISP.         1.946E-06   AT NODE          1   DOF  2
 LARGEST CORRECTION TO DISP.        1.231E-11   AT NODE          2   DOF  1
          THE FORCE     EQUILIBRIUM RESPONSE WAS LINEAR IN THIS INCREMENT
          TIME INCREMENT MAY NOW INCREASE TO    7.332E-02

 ITERATION SUMMARY FOR THE INCREMENT:   1 TOTAL ITERATIONS, OF WHICH
   0 ARE SEVERE DISCONTINUITY ITERATIONS AND  1 ARE EQUILIBRIUM ITERATIONS.

 TIME INCREMENT COMPLETED  4.888E-02,  FRACTION OF STEP COMPLETED  5.829E-04
 STEP TIME COMPLETED       0.146    ,  TOTAL TIME COMPLETED        0.146    


  INCREMENT    16 STARTS. ATTEMPT NUMBER  1, TIME INCREMENT  7.332E-02
 
	SYMMETRIC DIRECT SPARSE SOLVER RUNNING ON
 	1 HOST:        1 MPI RANK  x 1 THREAD
 	NUMBER OF EQUATIONS:     18
 	NUMBER OF RHS:           1
 	NUMBER OF FLOPS:         2.109e+03

     CHECK POINT  START OF SOLVER     

     CHECK POINT  END OF SOLVER       

       ELAPSED USER TIME (SEC)      =   0.0000    
       ELAPSED SYSTEM TIME (SEC)    =   0.0000    
       ELAPSED TOTAL CPU TIME (SEC) =   0.0000    
       ELAPSED WALLCLOCK TIME (SEC) =            0

               CONVERGENCE CHECKS FOR EQUILIBRIUM ITERATION     1


 AVERAGE FORCE                      1.645E-02   TIME AVG. FORCE       3.063E-03
 LARGEST SCALED RESIDUAL FORCE      1.649E-17   AT NODE          2   DOF  3
  CORRESPONDING RESIDUAL FORCE      1.649E-17
 LARGEST INCREMENT OF DISP.         2.919E-06   AT NODE          1   DOF  2
 LARGEST CORRECTION TO DISP.        2.769E-11   AT NODE          3   DOF  1
          THE FORCE     EQUILIBRIUM RESPONSE WAS LINEAR IN THIS INCREMENT
          TIME INCREMENT MAY NOW INCREASE TO    0.110    

 ITERATION SUMMARY FOR THE INCREMENT:   1 TOTAL ITERATIONS, OF WHICH
   0 ARE SEVERE DISCONTINUITY ITERATIONS AND  1 ARE EQUILIBRIUM ITERATIONS.

 TIME INCREMENT COMPLETED  7.332E-02,  FRACTION OF STEP COMPLETED  8.748E-04
 STEP TIME COMPLETED       0.220    ,  TOTAL TIME COMPLETED        0.220    


  INCREMENT    17 STARTS. ATTEMPT NUMBER  1, TIME INCREMENT  0.110    
 
	SYMMETRIC DIRECT SPARSE SOLVER RUNNING ON
 	1 HOST:        1 MPI RANK  x 1 THREAD
 	NUMBER OF EQUATIONS:     18
 	NUMBER OF RHS:           1
 	NUMBER OF FLOPS:         2.109e+03

     CHECK POINT  START OF SOLVER     

     CHECK POINT  END OF SOLVER       

       ELAPSED USER TIME (SEC)      =   0.0000    
       ELAPSED SYSTEM TIME (SEC)    =   0.0000    
       ELAPSED TOTAL CPU TIME (SEC) =   0.0000    
       ELAPSED WALLCLOCK TIME (SEC) =            0

               CONVERGENCE CHECKS FOR EQUILIBRIUM ITERATION     1


 AVERAGE FORCE                      2.468E-02   TIME AVG. FORCE       4.335E-03
 LARGEST SCALED RESIDUAL FORCE      8.579E-17   AT NODE          2   DOF  1
  CORRESPONDING RESIDUAL FORCE      8.579E-17
 LARGEST INCREMENT OF DISP.         4.379E-06   AT NODE          1   DOF  2
 LARGEST CORRECTION TO DISP.        6.231E-11   AT NODE          1   DOF  3
          THE FORCE     EQUILIBRIUM RESPONSE WAS LINEAR IN THIS INCREMENT
          TIME INCREMENT MAY NOW INCREASE TO    0.165    

 ITERATION SUMMARY FOR THE INCREMENT:   1 TOTAL ITERATIONS, OF WHICH
   0 ARE SEVERE DISCONTINUITY ITERATIONS AND  1 ARE EQUILIBRIUM ITERATIONS.

 TIME INCREMENT COMPLETED  0.110    ,  FRACTION OF STEP COMPLETED  1.313E-03
 STEP TIME COMPLETED       0.330    ,  TOTAL TIME COMPLETED        0.330    


  INCREMENT    18 STARTS. ATTEMPT NUMBER  1, TIME INCREMENT  0.165    
 
	SYMMETRIC DIRECT SPARSE SOLVER RUNNING ON
 	1 HOST:        1 MPI RANK  x 1 THREAD
 	NUMBER OF EQUATIONS:     18
 	NUMBER OF RHS:           1
 	NUMBER OF FLOPS:         2.109e+03

     CHECK POINT  START OF SOLVER     

     CHECK POINT  END OF SOLVER       

       ELAPSED USER TIME (SEC)      =   0.0000    
       ELAPSED SYSTEM TIME (SEC)    =   0.0000    
       ELAPSED TOTAL CPU TIME (SEC) =   0.0000    
       ELAPSED WALLCLOCK TIME (SEC) =            0

               CONVERGENCE CHECKS FOR EQUILIBRIUM ITERATION     1


 AVERAGE FORCE                      3.703E-02   TIME AVG. FORCE       6.151E-03
 LARGEST SCALED RESIDUAL FORCE      4.126E-16   AT NODE          3   DOF  1
  CORRESPONDING RESIDUAL FORCE      4.126E-16
 LARGEST INCREMENT OF DISP.         6.568E-06   AT NODE          1   DOF  2
 LARGEST CORRECTION TO DISP.        1.402E-10   AT NODE          2   DOF  1
          THE FORCE     EQUILIBRIUM RESPONSE WAS LINEAR IN THIS INCREMENT
          TIME INCREMENT MAY NOW INCREASE TO    0.247    

 ITERATION SUMMARY FOR THE INCREMENT:   1 TOTAL ITERATIONS, OF WHICH
   0 ARE SEVERE DISCONTINUITY ITERATIONS AND  1 ARE EQUILIBRIUM ITERATIONS.

 TIME INCREMENT COMPLETED  0.165    ,  FRACTION OF STEP COMPLETED  1.970E-03
 STEP TIME COMPLETED       0.495    ,  TOTAL TIME COMPLETED        0.495    


  INCREMENT    19 STARTS. ATTEMPT NUMBER  1, TIME INCREMENT  0.247    
 
	SYMMETRIC DIRECT SPARSE SOLVER RUNNING ON
 	1 HOST:        1 MPI RANK  x 1 THREAD
 	NUMBER OF EQUATIONS:     18
 	NUMBER OF RHS:           1
 	NUMBER OF FLOPS:         2.109e+03

     CHECK POINT  START OF SOLVER     

     CHECK POINT  END OF SOLVER       

       ELAPSED USER TIME (SEC)      =   0.0000    
       ELAPSED SYSTEM TIME (SEC)    =   0.0000    
       ELAPSED TOTAL CPU TIME (SEC) =   0.0000    
       ELAPSED WALLCLOCK TIME (SEC) =            0

               CONVERGENCE CHECKS FOR EQUILIBRIUM ITERATION     1


 AVERAGE FORCE                      5.554E-02   TIME AVG. FORCE       8.751E-03
 LARGEST SCALED RESIDUAL FORCE      2.046E-15   AT NODE          6   DOF  3
  CORRESPONDING RESIDUAL FORCE      2.046E-15
 LARGEST INCREMENT OF DISP.         9.853E-06   AT NODE          1   DOF  2
 LARGEST CORRECTION TO DISP.        3.153E-10   AT NODE          3   DOF  1
          THE FORCE     EQUILIBRIUM RESPONSE WAS LINEAR IN THIS INCREMENT
          TIME INCREMENT MAY NOW INCREASE TO    0.371    

 ITERATION SUMMARY FOR THE INCREMENT:   1 TOTAL ITERATIONS, OF WHICH
   0 ARE SEVERE DISCONTINUITY ITERATIONS AND  1 ARE EQUILIBRIUM ITERATIONS.

 TIME INCREMENT COMPLETED  0.247    ,  FRACTION OF STEP COMPLETED  2.955E-03
 STEP TIME COMPLETED       0.742    ,  TOTAL TIME COMPLETED        0.742    


  INCREMENT    20 STARTS. ATTEMPT NUMBER  1, TIME INCREMENT  0.371    
 
	SYMMETRIC DIRECT SPARSE SOLVER RUNNING ON
 	1 HOST:        1 MPI RANK  x 1 THREAD
 	NUMBER OF EQUATIONS:     18
 	NUMBER OF RHS:           1
 	NUMBER OF FLOPS:         2.109e+03

     CHECK POINT  START OF SOLVER     

     CHECK POINT  END OF SOLVER       

       ELAPSED USER TIME (SEC)      =   0.0000    
       ELAPSED SYSTEM TIME (SEC)    =   0.0000    
       ELAPSED TOTAL CPU TIME (SEC) =   0.0000    
       ELAPSED WALLCLOCK TIME (SEC) =            0

               CONVERGENCE CHECKS FOR EQUILIBRIUM ITERATION     1


 AVERAGE FORCE                      8.331E-02   TIME AVG. FORCE       1.248E-02
 LARGEST SCALED RESIDUAL FORCE      1.037E-14   AT NODE          3   DOF  1
  CORRESPONDING RESIDUAL FORCE      1.037E-14
 LARGEST INCREMENT OF DISP.         1.478E-05   AT NODE          1   DOF  2
 LARGEST CORRECTION TO DISP.        7.093E-10   AT NODE          2   DOF  1
          THE FORCE     EQUILIBRIUM RESPONSE WAS LINEAR IN THIS INCREMENT
          TIME INCREMENT MAY NOW INCREASE TO    0.557    

 ITERATION SUMMARY FOR THE INCREMENT:   1 TOTAL ITERATIONS, OF WHICH
   0 ARE SEVERE DISCONTINUITY ITERATIONS AND  1 ARE EQUILIBRIUM ITERATIONS.

 TIME INCREMENT COMPLETED  0.371    ,  FRACTION OF STEP COMPLETED  4.433E-03
 STEP TIME COMPLETED        1.11    ,  TOTAL TIME COMPLETED         1.11    


  INCREMENT    21 STARTS. ATTEMPT NUMBER  1, TIME INCREMENT  0.557    
 
	SYMMETRIC DIRECT SPARSE SOLVER RUNNING ON
 	1 HOST:        1 MPI RANK  x 1 THREAD
 	NUMBER OF EQUATIONS:     18
 	NUMBER OF RHS:           1
 	NUMBER OF FLOPS:         2.109e+03

     CHECK POINT  START OF SOLVER     

     CHECK POINT  END OF SOLVER       

       ELAPSED USER TIME (SEC)      =   0.0000    
       ELAPSED SYSTEM TIME (SEC)    =   0.0000    
       ELAPSED TOTAL CPU TIME (SEC) =   0.0000    
       ELAPSED WALLCLOCK TIME (SEC) =            0

               CONVERGENCE CHECKS FOR EQUILIBRIUM ITERATION     1


 AVERAGE FORCE                      0.125       TIME AVG. FORCE       1.783E-02
 LARGEST SCALED RESIDUAL FORCE      5.244E-14   AT NODE          2   DOF  1
  CORRESPONDING RESIDUAL FORCE      5.244E-14
 LARGEST INCREMENT OF DISP.         2.217E-05   AT NODE          1   DOF  2
 LARGEST CORRECTION TO DISP.        1.595E-09   AT NODE          5   DOF  3
          THE FORCE     EQUILIBRIUM RESPONSE WAS LINEAR IN THIS INCREMENT
          TIME INCREMENT MAY NOW INCREASE TO    0.835    

 ITERATION SUMMARY FOR THE INCREMENT:   1 TOTAL ITERATIONS, OF WHICH
   0 ARE SEVERE DISCONTINUITY ITERATIONS AND  1 ARE EQUILIBRIUM ITERATIONS.

 TIME INCREMENT COMPLETED  0.557    ,  FRACTION OF STEP COMPLETED  6.650E-03
 STEP TIME COMPLETED        1.67    ,  TOTAL TIME COMPLETED         1.67    


  INCREMENT    22 STARTS. ATTEMPT NUMBER  1, TIME INCREMENT  0.835    
 
	SYMMETRIC DIRECT SPARSE SOLVER RUNNING ON
 	1 HOST:        1 MPI RANK  x 1 THREAD
 	NUMBER OF EQUATIONS:     18
 	NUMBER OF RHS:           1
 	NUMBER OF FLOPS:         2.109e+03

     CHECK POINT  START OF SOLVER     

     CHECK POINT  END OF SOLVER       

       ELAPSED USER TIME (SEC)      =   0.0000    
       ELAPSED SYSTEM TIME (SEC)    =   0.0000    
       ELAPSED TOTAL CPU TIME (SEC) =   0.0000    
       ELAPSED WALLCLOCK TIME (SEC) =            0

               CONVERGENCE CHECKS FOR EQUILIBRIUM ITERATION     1


 AVERAGE FORCE                      0.187       TIME AVG. FORCE       2.554E-02
 LARGEST SCALED RESIDUAL FORCE      2.653E-13   AT NODE          6   DOF  3
  CORRESPONDING RESIDUAL FORCE      2.653E-13
 LARGEST INCREMENT OF DISP.         3.325E-05   AT NODE          1   DOF  2
 LARGEST CORRECTION TO DISP.        3.588E-09   AT NODE          4   DOF  1
          THE FORCE     EQUILIBRIUM RESPONSE WAS LINEAR IN THIS INCREMENT
          TIME INCREMENT MAY NOW INCREASE TO     1.25    

 ITERATION SUMMARY FOR THE INCREMENT:   1 TOTAL ITERATIONS, OF WHICH
   0 ARE SEVERE DISCONTINUITY ITERATIONS AND  1 ARE EQUILIBRIUM ITERATIONS.

 TIME INCREMENT COMPLETED  0.835    ,  FRACTION OF STEP COMPLETED  9.975E-03
 STEP TIME COMPLETED        2.51    ,  TOTAL TIME COMPLETED         2.51    


  INCREMENT    23 STARTS. ATTEMPT NUMBER  1, TIME INCREMENT   1.25    
 
	SYMMETRIC DIRECT SPARSE SOLVER RUNNING ON
 	1 HOST:        1 MPI RANK  x 1 THREAD
 	NUMBER OF EQUATIONS:     18
 	NUMBER OF RHS:           1
 	NUMBER OF FLOPS:         2.109e+03

     CHECK POINT  START OF SOLVER     

     CHECK POINT  END OF SOLVER       

       ELAPSED USER TIME (SEC)      =   0.0000    
       ELAPSED SYSTEM TIME (SEC)    =   0.0000    
       ELAPSED TOTAL CPU TIME (SEC) =   0.0000    
       ELAPSED WALLCLOCK TIME (SEC) =            0

               CONVERGENCE CHECKS FOR EQUILIBRIUM ITERATION     1


 AVERAGE FORCE                      0.374       TIME AVG. FORCE       4.067E-02
 LARGEST SCALED RESIDUAL FORCE     -0.144       AT NODE          2   DOF  3
  CORRESPONDING RESIDUAL FORCE     -0.144    
 LARGEST INCREMENT OF DISP.         5.010E-04   AT NODE          1   DOF  2
 LARGEST CORRECTION TO DISP.        4.512E-04   AT NODE          7   DOF  2
          FORCE     EQUILIBRIUM NOT ACHIEVED WITHIN TOLERANCE.
 
	SYMMETRIC DIRECT SPARSE SOLVER RUNNING ON
 	1 HOST:        1 MPI RANK  x 1 THREAD
 	NUMBER OF EQUATIONS:     18
 	NUMBER OF RHS:           1
 	NUMBER OF FLOPS:         2.109e+03

     CHECK POINT  START OF SOLVER     

     CHECK POINT  END OF SOLVER       

       ELAPSED USER TIME (SEC)      =   0.0000    
       ELAPSED SYSTEM TIME (SEC)    =   0.0000    
       ELAPSED TOTAL CPU TIME (SEC) =   0.0000    
       ELAPSED WALLCLOCK TIME (SEC) =            0

               CONVERGENCE CHECKS FOR EQUILIBRIUM ITERATION     2


 AVERAGE FORCE                      0.247       TIME AVG. FORCE       3.515E-02
 LARGEST SCALED RESIDUAL FORCE      1.341E-04   AT NODE          2   DOF  1
  CORRESPONDING RESIDUAL FORCE      1.341E-04
 LARGEST INCREMENT OF DISP.         5.010E-04   AT NODE          1   DOF  2
 LARGEST CORRECTION TO DISP.       -5.519E-05   AT NODE          6   DOF  3
          DISP.    CORRECTION TOO LARGE COMPARED TO DISP.    INCREMENT
 
	SYMMETRIC DIRECT SPARSE SOLVER RUNNING ON
 	1 HOST:        1 MPI RANK  x 1 THREAD
 	NUMBER OF EQUATIONS:     18
 	NUMBER OF RHS:           1
 	NUMBER OF FLOPS:         2.109e+03

     CHECK POINT  START OF SOLVER     

     CHECK POINT  END OF SOLVER       

       ELAPSED USER TIME (SEC)      =   0.0000    
       ELAPSED SYSTEM TIME (SEC)    =   0.0000    
       ELAPSED TOTAL CPU TIME (SEC) =   0.0000    
       ELAPSED WALLCLOCK TIME (SEC) =            0

               CONVERGENCE CHECKS FOR EQUILIBRIUM ITERATION     3


 AVERAGE FORCE                      0.370       TIME AVG. FORCE       4.051E-02
 LARGEST SCALED RESIDUAL FORCE     -1.574E-07   AT NODE          1   DOF  1
  CORRESPONDING RESIDUAL FORCE     -1.574E-07
 LARGEST INCREMENT OF DISP.         5.010E-04   AT NODE          1   DOF  2
 LARGEST CORRECTION TO DISP.       -9.330E-08   AT NODE          3   DOF  1
          THE FORCE     EQUILIBRIUM EQUATIONS HAVE CONVERGED
          TIME INCREMENT MAY NOW INCREASE TO     1.88    

 ITERATION SUMMARY FOR THE INCREMENT:   3 TOTAL ITERATIONS, OF WHICH
   0 ARE SEVERE DISCONTINUITY ITERATIONS AND  3 ARE EQUILIBRIUM ITERATIONS.

 TIME INCREMENT COMPLETED   1.25    ,  FRACTION OF STEP COMPLETED  1.496E-02
 STEP TIME COMPLETED        3.76    ,  TOTAL TIME COMPLETED         3.76    


  INCREMENT    24 STARTS. ATTEMPT NUMBER  1, TIME INCREMENT   1.88    
 
	SYMMETRIC DIRECT SPARSE SOLVER RUNNING ON
 	1 HOST:        1 MPI RANK  x 1 THREAD
 	NUMBER OF EQUATIONS:     18
 	NUMBER OF RHS:           1
 	NUMBER OF FLOPS:         2.109e+03

     CHECK POINT  START OF SOLVER     

     CHECK POINT  END OF SOLVER       

       ELAPSED USER TIME (SEC)      =   0.0000    
       ELAPSED SYSTEM TIME (SEC)    =   0.0000    
       ELAPSED TOTAL CPU TIME (SEC) =   0.0000    
       ELAPSED WALLCLOCK TIME (SEC) =            0

               CONVERGENCE CHECKS FOR EQUILIBRIUM ITERATION     1


 AVERAGE FORCE                      0.258       TIME AVG. FORCE       4.957E-02
 LARGEST SCALED RESIDUAL FORCE     -1.621E-03   AT NODE          1   DOF  1
  CORRESPONDING RESIDUAL FORCE     -1.621E-03
 LARGEST INCREMENT OF DISP.         7.550E-04   AT NODE          1   DOF  2
 LARGEST CORRECTION TO DISP.       -1.117E-04   AT NODE          1   DOF  3
          FORCE     EQUILIBRIUM NOT ACHIEVED WITHIN TOLERANCE.
 
	SYMMETRIC DIRECT SPARSE SOLVER RUNNING ON
 	1 HOST:        1 MPI RANK  x 1 THREAD
 	NUMBER OF EQUATIONS:     18
 	NUMBER OF RHS:           1
 	NUMBER OF FLOPS:         2.109e+03

     CHECK POINT  START OF SOLVER     

     CHECK POINT  END OF SOLVER       

       ELAPSED USER TIME (SEC)      =   0.0000    
       ELAPSED SYSTEM TIME (SEC)    =   0.0000    
       ELAPSED TOTAL CPU TIME (SEC) =   0.0000    
       ELAPSED WALLCLOCK TIME (SEC) =            0

               CONVERGENCE CHECKS FOR EQUILIBRIUM ITERATION     2


 AVERAGE FORCE                      0.281       TIME AVG. FORCE       5.052E-02
 LARGEST SCALED RESIDUAL FORCE     -4.218E-06   AT NODE          1   DOF  1
  CORRESPONDING RESIDUAL FORCE     -4.218E-06
 LARGEST INCREMENT OF DISP.         7.550E-04   AT NODE          1   DOF  2
 LARGEST CORRECTION TO DISP.       -2.279E-06   AT NODE          3   DOF  1
          THE FORCE     EQUILIBRIUM EQUATIONS HAVE CONVERGED
          TIME INCREMENT MAY NOW INCREASE TO     2.51    

 ITERATION SUMMARY FOR THE INCREMENT:   2 TOTAL ITERATIONS, OF WHICH
   0 ARE SEVERE DISCONTINUITY ITERATIONS AND  2 ARE EQUILIBRIUM ITERATIONS.

 TIME INCREMENT COMPLETED   1.88    ,  FRACTION OF STEP COMPLETED  2.244E-02
 STEP TIME COMPLETED        5.64    ,  TOTAL TIME COMPLETED         5.64    


  INCREMENT    25 STARTS. ATTEMPT NUMBER  1, TIME INCREMENT   2.51    
 
	SYMMETRIC DIRECT SPARSE SOLVER RUNNING ON
 	1 HOST:        1 MPI RANK  x 1 THREAD
 	NUMBER OF EQUATIONS:     18
 	NUMBER OF RHS:           1
 	NUMBER OF FLOPS:         2.109e+03

     CHECK POINT  START OF SOLVER     

     CHECK POINT  END OF SOLVER       

       ELAPSED USER TIME (SEC)      =   0.0000    
       ELAPSED SYSTEM TIME (SEC)    =   0.0000    
       ELAPSED TOTAL CPU TIME (SEC) =   0.0000    
       ELAPSED WALLCLOCK TIME (SEC) =            0

               CONVERGENCE CHECKS FOR EQUILIBRIUM ITERATION     1


 AVERAGE FORCE                      0.360       TIME AVG. FORCE       6.290E-02
 LARGEST SCALED RESIDUAL FORCE      1.068E-06   AT NODE          5   DOF  3
  CORRESPONDING RESIDUAL FORCE      1.068E-06
 LARGEST INCREMENT OF DISP.         1.009E-03   AT NODE          1   DOF  2
 LARGEST CORRECTION TO DISP.        6.854E-06   AT NODE          5   DOF  3
          THE FORCE     EQUILIBRIUM EQUATIONS HAVE CONVERGED

 ITERATION SUMMARY FOR THE INCREMENT:   1 TOTAL ITERATIONS, OF WHICH
   0 ARE SEVERE DISCONTINUITY ITERATIONS AND  1 ARE EQUILIBRIUM ITERATIONS.

 TIME INCREMENT COMPLETED   2.51    ,  FRACTION OF STEP COMPLETED  3.244E-02
 STEP TIME COMPLETED        8.15    ,  TOTAL TIME COMPLETED         8.15    


  INCREMENT    26 STARTS. ATTEMPT NUMBER  1, TIME INCREMENT   2.51    
 
	SYMMETRIC DIRECT SPARSE SOLVER RUNNING ON
 	1 HOST:        1 MPI RANK  x 1 THREAD
 	NUMBER OF EQUATIONS:     18
 	NUMBER OF RHS:           1
 	NUMBER OF FLOPS:         2.109e+03

     CHECK POINT  START OF SOLVER     

     CHECK POINT  END OF SOLVER       

       ELAPSED USER TIME (SEC)      =   0.0000    
       ELAPSED SYSTEM TIME (SEC)    =   0.0000    
       ELAPSED TOTAL CPU TIME (SEC) =   0.0000    
       ELAPSED WALLCLOCK TIME (SEC) =            0

               CONVERGENCE CHECKS FOR EQUILIBRIUM ITERATION     1


 AVERAGE FORCE                      0.354       TIME AVG. FORCE       7.409E-02
 LARGEST SCALED RESIDUAL FORCE      1.246E-06   AT NODE          5   DOF  3
  CORRESPONDING RESIDUAL FORCE      1.246E-06
 LARGEST INCREMENT OF DISP.         1.009E-03   AT NODE          1   DOF  2
 LARGEST CORRECTION TO DISP.        7.821E-06   AT NODE          5   DOF  3
          THE FORCE     EQUILIBRIUM EQUATIONS HAVE CONVERGED

 ITERATION SUMMARY FOR THE INCREMENT:   1 TOTAL ITERATIONS, OF WHICH
   0 ARE SEVERE DISCONTINUITY ITERATIONS AND  1 ARE EQUILIBRIUM ITERATIONS.

 TIME INCREMENT COMPLETED   2.51    ,  FRACTION OF STEP COMPLETED  4.244E-02
 STEP TIME COMPLETED        10.7    ,  TOTAL TIME COMPLETED         10.7    


  INCREMENT    27 STARTS. ATTEMPT NUMBER  1, TIME INCREMENT   2.51    
 
	SYMMETRIC DIRECT SPARSE SOLVER RUNNING ON
 	1 HOST:        1 MPI RANK  x 1 THREAD
 	NUMBER OF EQUATIONS:     18
 	NUMBER OF RHS:           1
 	NUMBER OF FLOPS:         2.109e+03

     CHECK POINT  START OF SOLVER     

     CHECK POINT  END OF SOLVER       

       ELAPSED USER TIME (SEC)      =   0.0000    
       ELAPSED SYSTEM TIME (SEC)    =   0.0000    
       ELAPSED TOTAL CPU TIME (SEC) =   0.0000    
       ELAPSED WALLCLOCK TIME (SEC) =            0
 

 ***WARNING: THE SYSTEM MATRIX HAS 1 NEGATIVE EIGENVALUES.

     NEGATIVE EIGENVALUES MEAN THAT THE SYSTEM MATRIX IS NOT 
     POSITIVE DEFINITE:
     FOR EXAMPLE, A BIFURCATION (BUCKLING) LOAD MAY HAVE BEEN EXCEEDED.

               CONVERGENCE CHECKS FOR EQUILIBRIUM ITERATION     1


 AVERAGE FORCE                      0.433       TIME AVG. FORCE       8.739E-02
 LARGEST SCALED RESIDUAL FORCE      1.291E-06   AT NODE          6   DOF  3
  CORRESPONDING RESIDUAL FORCE      1.291E-06
 LARGEST INCREMENT OF DISP.         1.009E-03   AT NODE          1   DOF  2
 LARGEST CORRECTION TO DISP.        7.810E-06   AT NODE          5   DOF  3
          THE FORCE     EQUILIBRIUM EQUATIONS HAVE CONVERGED

 ITERATION SUMMARY FOR THE INCREMENT:   1 TOTAL ITERATIONS, OF WHICH
   0 ARE SEVERE DISCONTINUITY ITERATIONS AND  1 ARE EQUILIBRIUM ITERATIONS.

 TIME INCREMENT COMPLETED   2.51    ,  FRACTION OF STEP COMPLETED  5.244E-02
 STEP TIME COMPLETED        13.2    ,  TOTAL TIME COMPLETED         13.2    


  INCREMENT    28 STARTS. ATTEMPT NUMBER  1, TIME INCREMENT   2.51    
 
	SYMMETRIC DIRECT SPARSE SOLVER RUNNING ON
 	1 HOST:        1 MPI RANK  x 1 THREAD
 	NUMBER OF EQUATIONS:     18
 	NUMBER OF RHS:           1
 	NUMBER OF FLOPS:         2.109e+03

     CHECK POINT  START OF SOLVER     

     CHECK POINT  END OF SOLVER       

       ELAPSED USER TIME (SEC)      =   0.0000    
       ELAPSED SYSTEM TIME (SEC)    =   0.0000    
       ELAPSED TOTAL CPU TIME (SEC) =   0.0000    
       ELAPSED WALLCLOCK TIME (SEC) =            0
 

 ***WARNING: THE SYSTEM MATRIX HAS 1 NEGATIVE EIGENVALUES.
             EXPLANATIONS ARE SUGGESTED AFTER THE FIRST OCCURRENCE OF THIS MESSAGE.

               CONVERGENCE CHECKS FOR EQUILIBRIUM ITERATION     1


 AVERAGE FORCE                      0.296       TIME AVG. FORCE       9.485E-02
 LARGEST SCALED RESIDUAL FORCE     -4.824E-06   AT NODE          1   DOF  1
  CORRESPONDING RESIDUAL FORCE     -4.824E-06
 LARGEST INCREMENT OF DISP.         1.009E-03   AT NODE          1   DOF  2
 LARGEST CORRECTION TO DISP.        1.623E-05   AT NODE          5   DOF  3
 ESTIMATE OF DISP.    CORRECTION   -3.451E-09
 FORCE     EQUILIB. ACCEPTED BASED ON SMALL RESIDUAL AND ESTIMATED CORRECTION

 ITERATION SUMMARY FOR THE INCREMENT:   1 TOTAL ITERATIONS, OF WHICH
   0 ARE SEVERE DISCONTINUITY ITERATIONS AND  1 ARE EQUILIBRIUM ITERATIONS.

 TIME INCREMENT COMPLETED   2.51    ,  FRACTION OF STEP COMPLETED  6.244E-02
 STEP TIME COMPLETED        15.7    ,  TOTAL TIME COMPLETED         15.7    


  INCREMENT    29 STARTS. ATTEMPT NUMBER  1, TIME INCREMENT   2.51    
 
	SYMMETRIC DIRECT SPARSE SOLVER RUNNING ON
 	1 HOST:        1 MPI RANK  x 1 THREAD
 	NUMBER OF EQUATIONS:     18
 	NUMBER OF RHS:           1
 	NUMBER OF FLOPS:         2.109e+03

     CHECK POINT  START OF SOLVER     

     CHECK POINT  END OF SOLVER       

       ELAPSED USER TIME (SEC)      =   0.0000    
       ELAPSED SYSTEM TIME (SEC)    =   0.0000    
       ELAPSED TOTAL CPU TIME (SEC) =   0.0000    
       ELAPSED WALLCLOCK TIME (SEC) =            0
 

 ***WARNING: THE SYSTEM MATRIX HAS 1 NEGATIVE EIGENVALUES.
             EXPLANATIONS ARE SUGGESTED AFTER THE FIRST OCCURRENCE OF THIS MESSAGE.

               CONVERGENCE CHECKS FOR EQUILIBRIUM ITERATION     1


 AVERAGE FORCE                      0.454       TIME AVG. FORCE       0.107    
 LARGEST SCALED RESIDUAL FORCE      1.439E-06   AT NODE          5   DOF  3
  CORRESPONDING RESIDUAL FORCE      1.439E-06
 LARGEST INCREMENT OF DISP.         1.009E-03   AT NODE          1   DOF  2
 LARGEST CORRECTION TO DISP.        8.493E-06   AT NODE          5   DOF  3
          THE FORCE     EQUILIBRIUM EQUATIONS HAVE CONVERGED

 ITERATION SUMMARY FOR THE INCREMENT:   1 TOTAL ITERATIONS, OF WHICH
   0 ARE SEVERE DISCONTINUITY ITERATIONS AND  1 ARE EQUILIBRIUM ITERATIONS.

 TIME INCREMENT COMPLETED   2.51    ,  FRACTION OF STEP COMPLETED  7.244E-02
 STEP TIME COMPLETED        18.2    ,  TOTAL TIME COMPLETED         18.2    


  INCREMENT    30 STARTS. ATTEMPT NUMBER  1, TIME INCREMENT   2.51    
 
	SYMMETRIC DIRECT SPARSE SOLVER RUNNING ON
 	1 HOST:        1 MPI RANK  x 1 THREAD
 	NUMBER OF EQUATIONS:     18
 	NUMBER OF RHS:           1
 	NUMBER OF FLOPS:         2.109e+03

     CHECK POINT  START OF SOLVER     

     CHECK POINT  END OF SOLVER       

       ELAPSED USER TIME (SEC)      =   0.0000    
       ELAPSED SYSTEM TIME (SEC)    =   0.0000    
       ELAPSED TOTAL CPU TIME (SEC) =   0.0000    
       ELAPSED WALLCLOCK TIME (SEC) =            0
 

 ***WARNING: THE SYSTEM MATRIX HAS 1 NEGATIVE EIGENVALUES.
             EXPLANATIONS ARE SUGGESTED AFTER THE FIRST OCCURRENCE OF THIS MESSAGE.

               CONVERGENCE CHECKS FOR EQUILIBRIUM ITERATION     1


 AVERAGE FORCE                      0.462       TIME AVG. FORCE       0.119    
 LARGEST SCALED RESIDUAL FORCE      1.448E-06   AT NODE          5   DOF  3
  CORRESPONDING RESIDUAL FORCE      1.448E-06
 LARGEST INCREMENT OF DISP.         1.009E-03   AT NODE          1   DOF  2
 LARGEST CORRECTION TO DISP.        8.469E-06   AT NODE          5   DOF  3
          THE FORCE     EQUILIBRIUM EQUATIONS HAVE CONVERGED

 ITERATION SUMMARY FOR THE INCREMENT:   1 TOTAL ITERATIONS, OF WHICH
   0 ARE SEVERE DISCONTINUITY ITERATIONS AND  1 ARE EQUILIBRIUM ITERATIONS.

 TIME INCREMENT COMPLETED   2.51    ,  FRACTION OF STEP COMPLETED  8.244E-02
 STEP TIME COMPLETED        20.7    ,  TOTAL TIME COMPLETED         20.7    


  INCREMENT    31 STARTS. ATTEMPT NUMBER  1, TIME INCREMENT   2.51    
 
	SYMMETRIC DIRECT SPARSE SOLVER RUNNING ON
 	1 HOST:        1 MPI RANK  x 1 THREAD
 	NUMBER OF EQUATIONS:     18
 	NUMBER OF RHS:           1
 	NUMBER OF FLOPS:         2.109e+03

     CHECK POINT  START OF SOLVER     

     CHECK POINT  END OF SOLVER       

       ELAPSED USER TIME (SEC)      =   0.0000    
       ELAPSED SYSTEM TIME (SEC)    =   0.0000    
       ELAPSED TOTAL CPU TIME (SEC) =   0.0000    
       ELAPSED WALLCLOCK TIME (SEC) =            0
 

 ***WARNING: THE SYSTEM MATRIX HAS 1 NEGATIVE EIGENVALUES.
             EXPLANATIONS ARE SUGGESTED AFTER THE FIRST OCCURRENCE OF THIS MESSAGE.

               CONVERGENCE CHECKS FOR EQUILIBRIUM ITERATION     1


 AVERAGE FORCE                      0.470       TIME AVG. FORCE       0.130    
 LARGEST SCALED RESIDUAL FORCE      1.429E-06   AT NODE          5   DOF  3
  CORRESPONDING RESIDUAL FORCE      1.429E-06
 LARGEST INCREMENT OF DISP.         1.009E-03   AT NODE          1   DOF  2
 LARGEST CORRECTION TO DISP.        8.407E-06   AT NODE          5   DOF  3
          THE FORCE     EQUILIBRIUM EQUATIONS HAVE CONVERGED

 ITERATION SUMMARY FOR THE INCREMENT:   1 TOTAL ITERATIONS, OF WHICH
   0 ARE SEVERE DISCONTINUITY ITERATIONS AND  1 ARE EQUILIBRIUM ITERATIONS.

 TIME INCREMENT COMPLETED   2.51    ,  FRACTION OF STEP COMPLETED  9.244E-02
 STEP TIME COMPLETED        23.2    ,  TOTAL TIME COMPLETED         23.2    


  INCREMENT    32 STARTS. ATTEMPT NUMBER  1, TIME INCREMENT   2.51    
 
	SYMMETRIC DIRECT SPARSE SOLVER RUNNING ON
 	1 HOST:        1 MPI RANK  x 1 THREAD
 	NUMBER OF EQUATIONS:     18
 	NUMBER OF RHS:           1
 	NUMBER OF FLOPS:         2.109e+03

     CHECK POINT  START OF SOLVER     

     CHECK POINT  END OF SOLVER       

       ELAPSED USER TIME (SEC)      =   0.0000    
       ELAPSED SYSTEM TIME (SEC)    =   0.0000    
       ELAPSED TOTAL CPU TIME (SEC) =   0.0000    
       ELAPSED WALLCLOCK TIME (SEC) =            0
 

 ***WARNING: THE SYSTEM MATRIX HAS 1 NEGATIVE EIGENVALUES.
             EXPLANATIONS ARE SUGGESTED AFTER THE FIRST OCCURRENCE OF THIS MESSAGE.

               CONVERGENCE CHECKS FOR EQUILIBRIUM ITERATION     1


 AVERAGE FORCE                      0.476       TIME AVG. FORCE       0.141    
 LARGEST SCALED RESIDUAL FORCE      1.414E-06   AT NODE          5   DOF  3
  CORRESPONDING RESIDUAL FORCE      1.414E-06
 LARGEST INCREMENT OF DISP.         1.009E-03   AT NODE          1   DOF  2
 LARGEST CORRECTION TO DISP.        8.340E-06   AT NODE          5   DOF  3
          THE FORCE     EQUILIBRIUM EQUATIONS HAVE CONVERGED

 ITERATION SUMMARY FOR THE INCREMENT:   1 TOTAL ITERATIONS, OF WHICH
   0 ARE SEVERE DISCONTINUITY ITERATIONS AND  1 ARE EQUILIBRIUM ITERATIONS.

 TIME INCREMENT COMPLETED   2.51    ,  FRACTION OF STEP COMPLETED  0.102    
 STEP TIME COMPLETED        25.7    ,  TOTAL TIME COMPLETED         25.7    


  INCREMENT    33 STARTS. ATTEMPT NUMBER  1, TIME INCREMENT   2.51    
 
	SYMMETRIC DIRECT SPARSE SOLVER RUNNING ON
 	1 HOST:        1 MPI RANK  x 1 THREAD
 	NUMBER OF EQUATIONS:     18
 	NUMBER OF RHS:           1
 	NUMBER OF FLOPS:         2.109e+03

     CHECK POINT  START OF SOLVER     

     CHECK POINT  END OF SOLVER       

       ELAPSED USER TIME (SEC)      =   0.0000    
       ELAPSED SYSTEM TIME (SEC)    =   0.0000    
       ELAPSED TOTAL CPU TIME (SEC) =   0.0000    
       ELAPSED WALLCLOCK TIME (SEC) =            0
 

 ***WARNING: THE SYSTEM MATRIX HAS 1 NEGATIVE EIGENVALUES.
             EXPLANATIONS ARE SUGGESTED AFTER THE FIRST OCCURRENCE OF THIS MESSAGE.

               CONVERGENCE CHECKS FOR EQUILIBRIUM ITERATION     1


 AVERAGE FORCE                      0.482       TIME AVG. FORCE       0.152    
 LARGEST SCALED RESIDUAL FORCE      1.401E-06   AT NODE          5   DOF  3
  CORRESPONDING RESIDUAL FORCE      1.401E-06
 LARGEST INCREMENT OF DISP.         1.009E-03   AT NODE          1   DOF  2
 LARGEST CORRECTION TO DISP.        8.269E-06   AT NODE          5   DOF  3
          THE FORCE     EQUILIBRIUM EQUATIONS HAVE CONVERGED

 ITERATION SUMMARY FOR THE INCREMENT:   1 TOTAL ITERATIONS, OF WHICH
   0 ARE SEVERE DISCONTINUITY ITERATIONS AND  1 ARE EQUILIBRIUM ITERATIONS.

 TIME INCREMENT COMPLETED   2.51    ,  FRACTION OF STEP COMPLETED  0.112    
 STEP TIME COMPLETED        28.2    ,  TOTAL TIME COMPLETED         28.2    


  INCREMENT    34 STARTS. ATTEMPT NUMBER  1, TIME INCREMENT   2.51    
 
	SYMMETRIC DIRECT SPARSE SOLVER RUNNING ON
 	1 HOST:        1 MPI RANK  x 1 THREAD
 	NUMBER OF EQUATIONS:     18
 	NUMBER OF RHS:           1
 	NUMBER OF FLOPS:         2.109e+03

     CHECK POINT  START OF SOLVER     

     CHECK POINT  END OF SOLVER       

       ELAPSED USER TIME (SEC)      =   0.0000    
       ELAPSED SYSTEM TIME (SEC)    =   0.0000    
       ELAPSED TOTAL CPU TIME (SEC) =   0.0000    
       ELAPSED WALLCLOCK TIME (SEC) =            0
 

 ***WARNING: THE SYSTEM MATRIX HAS 1 NEGATIVE EIGENVALUES.
             EXPLANATIONS ARE SUGGESTED AFTER THE FIRST OCCURRENCE OF THIS MESSAGE.

               CONVERGENCE CHECKS FOR EQUILIBRIUM ITERATION     1


 AVERAGE FORCE                      0.487       TIME AVG. FORCE       0.161    
 LARGEST SCALED RESIDUAL FORCE      1.388E-06   AT NODE          5   DOF  3
  CORRESPONDING RESIDUAL FORCE      1.388E-06
 LARGEST INCREMENT OF DISP.         1.009E-03   AT NODE          1   DOF  2
 LARGEST CORRECTION TO DISP.        8.196E-06   AT NODE          5   DOF  3
          THE FORCE     EQUILIBRIUM EQUATIONS HAVE CONVERGED

 ITERATION SUMMARY FOR THE INCREMENT:   1 TOTAL ITERATIONS, OF WHICH
   0 ARE SEVERE DISCONTINUITY ITERATIONS AND  1 ARE EQUILIBRIUM ITERATIONS.

 TIME INCREMENT COMPLETED   2.51    ,  FRACTION OF STEP COMPLETED  0.122    
 STEP TIME COMPLETED        30.8    ,  TOTAL TIME COMPLETED         30.8    


  INCREMENT    35 STARTS. ATTEMPT NUMBER  1, TIME INCREMENT   2.51    
 
	SYMMETRIC DIRECT SPARSE SOLVER RUNNING ON
 	1 HOST:        1 MPI RANK  x 1 THREAD
 	NUMBER OF EQUATIONS:     18
 	NUMBER OF RHS:           1
 	NUMBER OF FLOPS:         2.109e+03

     CHECK POINT  START OF SOLVER     

     CHECK POINT  END OF SOLVER       

       ELAPSED USER TIME (SEC)      =   0.0000    
       ELAPSED SYSTEM TIME (SEC)    =   0.0000    
       ELAPSED TOTAL CPU TIME (SEC) =   0.0000    
       ELAPSED WALLCLOCK TIME (SEC) =            0
 

 ***WARNING: THE SYSTEM MATRIX HAS 1 NEGATIVE EIGENVALUES.
             EXPLANATIONS ARE SUGGESTED AFTER THE FIRST OCCURRENCE OF THIS MESSAGE.

               CONVERGENCE CHECKS FOR EQUILIBRIUM ITERATION     1


 AVERAGE FORCE                      0.492       TIME AVG. FORCE       0.171    
 LARGEST SCALED RESIDUAL FORCE      1.376E-06   AT NODE          5   DOF  3
  CORRESPONDING RESIDUAL FORCE      1.376E-06
 LARGEST INCREMENT OF DISP.         1.009E-03   AT NODE          1   DOF  2
 LARGEST CORRECTION TO DISP.        8.121E-06   AT NODE          5   DOF  3
          THE FORCE     EQUILIBRIUM EQUATIONS HAVE CONVERGED

 ITERATION SUMMARY FOR THE INCREMENT:   1 TOTAL ITERATIONS, OF WHICH
   0 ARE SEVERE DISCONTINUITY ITERATIONS AND  1 ARE EQUILIBRIUM ITERATIONS.

 TIME INCREMENT COMPLETED   2.51    ,  FRACTION OF STEP COMPLETED  0.132    
 STEP TIME COMPLETED        33.3    ,  TOTAL TIME COMPLETED         33.3    


  INCREMENT    36 STARTS. ATTEMPT NUMBER  1, TIME INCREMENT   2.51    
 
	SYMMETRIC DIRECT SPARSE SOLVER RUNNING ON
 	1 HOST:        1 MPI RANK  x 1 THREAD
 	NUMBER OF EQUATIONS:     18
 	NUMBER OF RHS:           1
 	NUMBER OF FLOPS:         2.109e+03

     CHECK POINT  START OF SOLVER     

     CHECK POINT  END OF SOLVER       

       ELAPSED USER TIME (SEC)      =   0.0000    
       ELAPSED SYSTEM TIME (SEC)    =   0.0000    
       ELAPSED TOTAL CPU TIME (SEC) =   0.0000    
       ELAPSED WALLCLOCK TIME (SEC) =            0
 

 ***WARNING: THE SYSTEM MATRIX HAS 1 NEGATIVE EIGENVALUES.
             EXPLANATIONS ARE SUGGESTED AFTER THE FIRST OCCURRENCE OF THIS MESSAGE.

               CONVERGENCE CHECKS FOR EQUILIBRIUM ITERATION     1


 AVERAGE FORCE                      0.496       TIME AVG. FORCE       0.180    
 LARGEST SCALED RESIDUAL FORCE      1.365E-06   AT NODE          5   DOF  3
  CORRESPONDING RESIDUAL FORCE      1.365E-06
 LARGEST INCREMENT OF DISP.         1.009E-03   AT NODE          1   DOF  2
 LARGEST CORRECTION TO DISP.        8.046E-06   AT NODE          5   DOF  3
          THE FORCE     EQUILIBRIUM EQUATIONS HAVE CONVERGED

 ITERATION SUMMARY FOR THE INCREMENT:   1 TOTAL ITERATIONS, OF WHICH
   0 ARE SEVERE DISCONTINUITY ITERATIONS AND  1 ARE EQUILIBRIUM ITERATIONS.

 TIME INCREMENT COMPLETED   2.51    ,  FRACTION OF STEP COMPLETED  0.142    
 STEP TIME COMPLETED        35.8    ,  TOTAL TIME COMPLETED         35.8    


  INCREMENT    37 STARTS. ATTEMPT NUMBER  1, TIME INCREMENT   2.51    
 
	SYMMETRIC DIRECT SPARSE SOLVER RUNNING ON
 	1 HOST:        1 MPI RANK  x 1 THREAD
 	NUMBER OF EQUATIONS:     18
 	NUMBER OF RHS:           1
 	NUMBER OF FLOPS:         2.109e+03

     CHECK POINT  START OF SOLVER     

     CHECK POINT  END OF SOLVER       

       ELAPSED USER TIME (SEC)      =   0.0000    
       ELAPSED SYSTEM TIME (SEC)    =   0.0000    
       ELAPSED TOTAL CPU TIME (SEC) =   0.0000    
       ELAPSED WALLCLOCK TIME (SEC) =            0
 

 ***WARNING: THE SYSTEM MATRIX HAS 1 NEGATIVE EIGENVALUES.
             EXPLANATIONS ARE SUGGESTED AFTER THE FIRST OCCURRENCE OF THIS MESSAGE.

               CONVERGENCE CHECKS FOR EQUILIBRIUM ITERATION     1


 AVERAGE FORCE                      0.499       TIME AVG. FORCE       0.189    
 LARGEST SCALED RESIDUAL FORCE      1.355E-06   AT NODE          5   DOF  3
  CORRESPONDING RESIDUAL FORCE      1.355E-06
 LARGEST INCREMENT OF DISP.         1.009E-03   AT NODE          1   DOF  2
 LARGEST CORRECTION TO DISP.        7.973E-06   AT NODE          5   DOF  3
          THE FORCE     EQUILIBRIUM EQUATIONS HAVE CONVERGED

 ITERATION SUMMARY FOR THE INCREMENT:   1 TOTAL ITERATIONS, OF WHICH
   0 ARE SEVERE DISCONTINUITY ITERATIONS AND  1 ARE EQUILIBRIUM ITERATIONS.

 TIME INCREMENT COMPLETED   2.51    ,  FRACTION OF STEP COMPLETED  0.152    
 STEP TIME COMPLETED        38.3    ,  TOTAL TIME COMPLETED         38.3    


  INCREMENT    38 STARTS. ATTEMPT NUMBER  1, TIME INCREMENT   2.51    
 
	SYMMETRIC DIRECT SPARSE SOLVER RUNNING ON
 	1 HOST:        1 MPI RANK  x 1 THREAD
 	NUMBER OF EQUATIONS:     18
 	NUMBER OF RHS:           1
 	NUMBER OF FLOPS:         2.109e+03

     CHECK POINT  START OF SOLVER     

     CHECK POINT  END OF SOLVER       

       ELAPSED USER TIME (SEC)      =   0.0000    
       ELAPSED SYSTEM TIME (SEC)    =   0.0000    
       ELAPSED TOTAL CPU TIME (SEC) =   0.0000    
       ELAPSED WALLCLOCK TIME (SEC) =            0
 

 ***WARNING: THE SYSTEM MATRIX HAS 1 NEGATIVE EIGENVALUES.
             EXPLANATIONS ARE SUGGESTED AFTER THE FIRST OCCURRENCE OF THIS MESSAGE.

               CONVERGENCE CHECKS FOR EQUILIBRIUM ITERATION     1


 AVERAGE FORCE                      0.502       TIME AVG. FORCE       0.197    
 LARGEST SCALED RESIDUAL FORCE      1.347E-06   AT NODE          5   DOF  3
  CORRESPONDING RESIDUAL FORCE      1.347E-06
 LARGEST INCREMENT OF DISP.         1.009E-03   AT NODE          1   DOF  2
 LARGEST CORRECTION TO DISP.        7.901E-06   AT NODE          5   DOF  3
          THE FORCE     EQUILIBRIUM EQUATIONS HAVE CONVERGED

 ITERATION SUMMARY FOR THE INCREMENT:   1 TOTAL ITERATIONS, OF WHICH
   0 ARE SEVERE DISCONTINUITY ITERATIONS AND  1 ARE EQUILIBRIUM ITERATIONS.

 TIME INCREMENT COMPLETED   2.51    ,  FRACTION OF STEP COMPLETED  0.162    
 STEP TIME COMPLETED        40.8    ,  TOTAL TIME COMPLETED         40.8    


  INCREMENT    39 STARTS. ATTEMPT NUMBER  1, TIME INCREMENT   2.51    
 
	SYMMETRIC DIRECT SPARSE SOLVER RUNNING ON
 	1 HOST:        1 MPI RANK  x 1 THREAD
 	NUMBER OF EQUATIONS:     18
 	NUMBER OF RHS:           1
 	NUMBER OF FLOPS:         2.109e+03

     CHECK POINT  START OF SOLVER     

     CHECK POINT  END OF SOLVER       

       ELAPSED USER TIME (SEC)      =   0.0000    
       ELAPSED SYSTEM TIME (SEC)    =   0.0000    
       ELAPSED TOTAL CPU TIME (SEC) =   0.0000    
       ELAPSED WALLCLOCK TIME (SEC) =            0
 

 ***WARNING: THE SYSTEM MATRIX HAS 1 NEGATIVE EIGENVALUES.
             EXPLANATIONS ARE SUGGESTED AFTER THE FIRST OCCURRENCE OF THIS MESSAGE.

               CONVERGENCE CHECKS FOR EQUILIBRIUM ITERATION     1


 AVERAGE FORCE                      0.505       TIME AVG. FORCE       0.205    
 LARGEST SCALED RESIDUAL FORCE      1.339E-06   AT NODE          5   DOF  3
  CORRESPONDING RESIDUAL FORCE      1.339E-06
 LARGEST INCREMENT OF DISP.         1.009E-03   AT NODE          1   DOF  2
 LARGEST CORRECTION TO DISP.        7.830E-06   AT NODE          5   DOF  3
          THE FORCE     EQUILIBRIUM EQUATIONS HAVE CONVERGED

 ITERATION SUMMARY FOR THE INCREMENT:   1 TOTAL ITERATIONS, OF WHICH
   0 ARE SEVERE DISCONTINUITY ITERATIONS AND  1 ARE EQUILIBRIUM ITERATIONS.

 TIME INCREMENT COMPLETED   2.51    ,  FRACTION OF STEP COMPLETED  0.172    
 STEP TIME COMPLETED        43.3    ,  TOTAL TIME COMPLETED         43.3    


  INCREMENT    40 STARTS. ATTEMPT NUMBER  1, TIME INCREMENT   2.51    
 
	SYMMETRIC DIRECT SPARSE SOLVER RUNNING ON
 	1 HOST:        1 MPI RANK  x 1 THREAD
 	NUMBER OF EQUATIONS:     18
 	NUMBER OF RHS:           1
 	NUMBER OF FLOPS:         2.109e+03

     CHECK POINT  START OF SOLVER     

     CHECK POINT  END OF SOLVER       

       ELAPSED USER TIME (SEC)      =   0.0000    
       ELAPSED SYSTEM TIME (SEC)    =   0.0000    
       ELAPSED TOTAL CPU TIME (SEC) =   0.0000    
       ELAPSED WALLCLOCK TIME (SEC) =            0
 

 ***WARNING: THE SYSTEM MATRIX HAS 1 NEGATIVE EIGENVALUES.
             EXPLANATIONS ARE SUGGESTED AFTER THE FIRST OCCURRENCE OF THIS MESSAGE.

               CONVERGENCE CHECKS FOR EQUILIBRIUM ITERATION     1


 AVERAGE FORCE                      0.508       TIME AVG. FORCE       0.212    
 LARGEST SCALED RESIDUAL FORCE      1.332E-06   AT NODE          5   DOF  3
  CORRESPONDING RESIDUAL FORCE      1.332E-06
 LARGEST INCREMENT OF DISP.         1.009E-03   AT NODE          1   DOF  2
 LARGEST CORRECTION TO DISP.        7.763E-06   AT NODE          5   DOF  3
          THE FORCE     EQUILIBRIUM EQUATIONS HAVE CONVERGED

 ITERATION SUMMARY FOR THE INCREMENT:   1 TOTAL ITERATIONS, OF WHICH
   0 ARE SEVERE DISCONTINUITY ITERATIONS AND  1 ARE EQUILIBRIUM ITERATIONS.

 TIME INCREMENT COMPLETED   2.51    ,  FRACTION OF STEP COMPLETED  0.182    
 STEP TIME COMPLETED        45.8    ,  TOTAL TIME COMPLETED         45.8    


  INCREMENT    41 STARTS. ATTEMPT NUMBER  1, TIME INCREMENT   2.51    
 
	SYMMETRIC DIRECT SPARSE SOLVER RUNNING ON
 	1 HOST:        1 MPI RANK  x 1 THREAD
 	NUMBER OF EQUATIONS:     18
 	NUMBER OF RHS:           1
 	NUMBER OF FLOPS:         2.109e+03

     CHECK POINT  START OF SOLVER     

     CHECK POINT  END OF SOLVER       

       ELAPSED USER TIME (SEC)      =   0.0000    
       ELAPSED SYSTEM TIME (SEC)    =   0.0000    
       ELAPSED TOTAL CPU TIME (SEC) =   0.0000    
       ELAPSED WALLCLOCK TIME (SEC) =            0
 

 ***WARNING: THE SYSTEM MATRIX HAS 1 NEGATIVE EIGENVALUES.
             EXPLANATIONS ARE SUGGESTED AFTER THE FIRST OCCURRENCE OF THIS MESSAGE.

               CONVERGENCE CHECKS FOR EQUILIBRIUM ITERATION     1


 AVERAGE FORCE                      0.510       TIME AVG. FORCE       0.220    
 LARGEST SCALED RESIDUAL FORCE      1.326E-06   AT NODE          5   DOF  3
  CORRESPONDING RESIDUAL FORCE      1.326E-06
 LARGEST INCREMENT OF DISP.         1.009E-03   AT NODE          1   DOF  2
 LARGEST CORRECTION TO DISP.        7.697E-06   AT NODE          5   DOF  3
          THE FORCE     EQUILIBRIUM EQUATIONS HAVE CONVERGED

 ITERATION SUMMARY FOR THE INCREMENT:   1 TOTAL ITERATIONS, OF WHICH
   0 ARE SEVERE DISCONTINUITY ITERATIONS AND  1 ARE EQUILIBRIUM ITERATIONS.

 TIME INCREMENT COMPLETED   2.51    ,  FRACTION OF STEP COMPLETED  0.192    
 STEP TIME COMPLETED        48.3    ,  TOTAL TIME COMPLETED         48.3    


  INCREMENT    42 STARTS. ATTEMPT NUMBER  1, TIME INCREMENT   2.51    
 
	SYMMETRIC DIRECT SPARSE SOLVER RUNNING ON
 	1 HOST:        1 MPI RANK  x 1 THREAD
 	NUMBER OF EQUATIONS:     18
 	NUMBER OF RHS:           1
 	NUMBER OF FLOPS:         2.109e+03

     CHECK POINT  START OF SOLVER     

     CHECK POINT  END OF SOLVER       

       ELAPSED USER TIME (SEC)      =   0.0000    
       ELAPSED SYSTEM TIME (SEC)    =   0.0000    
       ELAPSED TOTAL CPU TIME (SEC) =   0.0000    
       ELAPSED WALLCLOCK TIME (SEC) =            0
 

 ***WARNING: THE SYSTEM MATRIX HAS 1 NEGATIVE EIGENVALUES.
             EXPLANATIONS ARE SUGGESTED AFTER THE FIRST OCCURRENCE OF THIS MESSAGE.

               CONVERGENCE CHECKS FOR EQUILIBRIUM ITERATION     1


 AVERAGE FORCE                      0.512       TIME AVG. FORCE       0.226    
 LARGEST SCALED RESIDUAL FORCE      1.322E-06   AT NODE          5   DOF  3
  CORRESPONDING RESIDUAL FORCE      1.322E-06
 LARGEST INCREMENT OF DISP.         1.009E-03   AT NODE          1   DOF  2
 LARGEST CORRECTION TO DISP.        7.634E-06   AT NODE          5   DOF  3
          THE FORCE     EQUILIBRIUM EQUATIONS HAVE CONVERGED

 ITERATION SUMMARY FOR THE INCREMENT:   1 TOTAL ITERATIONS, OF WHICH
   0 ARE SEVERE DISCONTINUITY ITERATIONS AND  1 ARE EQUILIBRIUM ITERATIONS.

 TIME INCREMENT COMPLETED   2.51    ,  FRACTION OF STEP COMPLETED  0.202    
 STEP TIME COMPLETED        50.8    ,  TOTAL TIME COMPLETED         50.8    


  INCREMENT    43 STARTS. ATTEMPT NUMBER  1, TIME INCREMENT   2.51    
 
	SYMMETRIC DIRECT SPARSE SOLVER RUNNING ON
 	1 HOST:        1 MPI RANK  x 1 THREAD
 	NUMBER OF EQUATIONS:     18
 	NUMBER OF RHS:           1
 	NUMBER OF FLOPS:         2.109e+03

     CHECK POINT  START OF SOLVER     

     CHECK POINT  END OF SOLVER       

       ELAPSED USER TIME (SEC)      =   0.0000    
       ELAPSED SYSTEM TIME (SEC)    =   0.0000    
       ELAPSED TOTAL CPU TIME (SEC) =   0.0000    
       ELAPSED WALLCLOCK TIME (SEC) =            0
 

 ***WARNING: THE SYSTEM MATRIX HAS 1 NEGATIVE EIGENVALUES.
             EXPLANATIONS ARE SUGGESTED AFTER THE FIRST OCCURRENCE OF THIS MESSAGE.

               CONVERGENCE CHECKS FOR EQUILIBRIUM ITERATION     1


 AVERAGE FORCE                      0.513       TIME AVG. FORCE       0.233    
 LARGEST SCALED RESIDUAL FORCE      1.317E-06   AT NODE          5   DOF  3
  CORRESPONDING RESIDUAL FORCE      1.317E-06
 LARGEST INCREMENT OF DISP.         1.009E-03   AT NODE          1   DOF  2
 LARGEST CORRECTION TO DISP.        7.573E-06   AT NODE          5   DOF  3
          THE FORCE     EQUILIBRIUM EQUATIONS HAVE CONVERGED

 ITERATION SUMMARY FOR THE INCREMENT:   1 TOTAL ITERATIONS, OF WHICH
   0 ARE SEVERE DISCONTINUITY ITERATIONS AND  1 ARE EQUILIBRIUM ITERATIONS.

 TIME INCREMENT COMPLETED   2.51    ,  FRACTION OF STEP COMPLETED  0.212    
 STEP TIME COMPLETED        53.4    ,  TOTAL TIME COMPLETED         53.4    


  INCREMENT    44 STARTS. ATTEMPT NUMBER  1, TIME INCREMENT   2.51    
 
	SYMMETRIC DIRECT SPARSE SOLVER RUNNING ON
 	1 HOST:        1 MPI RANK  x 1 THREAD
 	NUMBER OF EQUATIONS:     18
 	NUMBER OF RHS:           1
 	NUMBER OF FLOPS:         2.109e+03

     CHECK POINT  START OF SOLVER     

     CHECK POINT  END OF SOLVER       

       ELAPSED USER TIME (SEC)      =   0.0000    
       ELAPSED SYSTEM TIME (SEC)    =   0.0000    
       ELAPSED TOTAL CPU TIME (SEC) =   0.0000    
       ELAPSED WALLCLOCK TIME (SEC) =            0
 

 ***WARNING: THE SYSTEM MATRIX HAS 1 NEGATIVE EIGENVALUES.
             EXPLANATIONS ARE SUGGESTED AFTER THE FIRST OCCURRENCE OF THIS MESSAGE.

               CONVERGENCE CHECKS FOR EQUILIBRIUM ITERATION     1


 AVERAGE FORCE                      0.515       TIME AVG. FORCE       0.240    
 LARGEST SCALED RESIDUAL FORCE      1.314E-06   AT NODE          5   DOF  3
  CORRESPONDING RESIDUAL FORCE      1.314E-06
 LARGEST INCREMENT OF DISP.         1.009E-03   AT NODE          1   DOF  2
 LARGEST CORRECTION TO DISP.        7.515E-06   AT NODE          5   DOF  3
          THE FORCE     EQUILIBRIUM EQUATIONS HAVE CONVERGED

 ITERATION SUMMARY FOR THE INCREMENT:   1 TOTAL ITERATIONS, OF WHICH
   0 ARE SEVERE DISCONTINUITY ITERATIONS AND  1 ARE EQUILIBRIUM ITERATIONS.

 TIME INCREMENT COMPLETED   2.51    ,  FRACTION OF STEP COMPLETED  0.222    
 STEP TIME COMPLETED        55.9    ,  TOTAL TIME COMPLETED         55.9    


  INCREMENT    45 STARTS. ATTEMPT NUMBER  1, TIME INCREMENT   2.51    
 
	SYMMETRIC DIRECT SPARSE SOLVER RUNNING ON
 	1 HOST:        1 MPI RANK  x 1 THREAD
 	NUMBER OF EQUATIONS:     18
 	NUMBER OF RHS:           1
 	NUMBER OF FLOPS:         2.109e+03

     CHECK POINT  START OF SOLVER     

     CHECK POINT  END OF SOLVER       

       ELAPSED USER TIME (SEC)      =   0.0000    
       ELAPSED SYSTEM TIME (SEC)    =   0.0000    
       ELAPSED TOTAL CPU TIME (SEC) =   0.0000    
       ELAPSED WALLCLOCK TIME (SEC) =            0
 

 ***WARNING: THE SYSTEM MATRIX HAS 1 NEGATIVE EIGENVALUES.
             EXPLANATIONS ARE SUGGESTED AFTER THE FIRST OCCURRENCE OF THIS MESSAGE.

               CONVERGENCE CHECKS FOR EQUILIBRIUM ITERATION     1


 AVERAGE FORCE                      0.516       TIME AVG. FORCE       0.246    
 LARGEST SCALED RESIDUAL FORCE      1.311E-06   AT NODE          5   DOF  3
  CORRESPONDING RESIDUAL FORCE      1.311E-06
 LARGEST INCREMENT OF DISP.         1.009E-03   AT NODE          1   DOF  2
 LARGEST CORRECTION TO DISP.        7.460E-06   AT NODE          5   DOF  3
          THE FORCE     EQUILIBRIUM EQUATIONS HAVE CONVERGED

 ITERATION SUMMARY FOR THE INCREMENT:   1 TOTAL ITERATIONS, OF WHICH
   0 ARE SEVERE DISCONTINUITY ITERATIONS AND  1 ARE EQUILIBRIUM ITERATIONS.

 TIME INCREMENT COMPLETED   2.51    ,  FRACTION OF STEP COMPLETED  0.232    
 STEP TIME COMPLETED        58.4    ,  TOTAL TIME COMPLETED         58.4    


  INCREMENT    46 STARTS. ATTEMPT NUMBER  1, TIME INCREMENT   2.51    
 
	SYMMETRIC DIRECT SPARSE SOLVER RUNNING ON
 	1 HOST:        1 MPI RANK  x 1 THREAD
 	NUMBER OF EQUATIONS:     18
 	NUMBER OF RHS:           1
 	NUMBER OF FLOPS:         2.109e+03

     CHECK POINT  START OF SOLVER     

     CHECK POINT  END OF SOLVER       

       ELAPSED USER TIME (SEC)      =   0.0000    
       ELAPSED SYSTEM TIME (SEC)    =   0.0000    
       ELAPSED TOTAL CPU TIME (SEC) =   0.0000    
       ELAPSED WALLCLOCK TIME (SEC) =            0
 

 ***WARNING: THE SYSTEM MATRIX HAS 1 NEGATIVE EIGENVALUES.
             EXPLANATIONS ARE SUGGESTED AFTER THE FIRST OCCURRENCE OF THIS MESSAGE.

               CONVERGENCE CHECKS FOR EQUILIBRIUM ITERATION     1


 AVERAGE FORCE                      0.517       TIME AVG. FORCE       0.252    
 LARGEST SCALED RESIDUAL FORCE      1.309E-06   AT NODE          5   DOF  3
  CORRESPONDING RESIDUAL FORCE      1.309E-06
 LARGEST INCREMENT OF DISP.         1.009E-03   AT NODE          1   DOF  2
 LARGEST CORRECTION TO DISP.        7.407E-06   AT NODE          5   DOF  3
          THE FORCE     EQUILIBRIUM EQUATIONS HAVE CONVERGED

 ITERATION SUMMARY FOR THE INCREMENT:   1 TOTAL ITERATIONS, OF WHICH
   0 ARE SEVERE DISCONTINUITY ITERATIONS AND  1 ARE EQUILIBRIUM ITERATIONS.

 TIME INCREMENT COMPLETED   2.51    ,  FRACTION OF STEP COMPLETED  0.242    
 STEP TIME COMPLETED        60.9    ,  TOTAL TIME COMPLETED         60.9    


  INCREMENT    47 STARTS. ATTEMPT NUMBER  1, TIME INCREMENT   2.51    
 
	SYMMETRIC DIRECT SPARSE SOLVER RUNNING ON
 	1 HOST:        1 MPI RANK  x 1 THREAD
 	NUMBER OF EQUATIONS:     18
 	NUMBER OF RHS:           1
 	NUMBER OF FLOPS:         2.109e+03

     CHECK POINT  START OF SOLVER     

     CHECK POINT  END OF SOLVER       

       ELAPSED USER TIME (SEC)      =  0.10000    
       ELAPSED SYSTEM TIME (SEC)    =   0.0000    
       ELAPSED TOTAL CPU TIME (SEC) =  0.10000    
       ELAPSED WALLCLOCK TIME (SEC) =            0
 

 ***WARNING: THE SYSTEM MATRIX HAS 1 NEGATIVE EIGENVALUES.
             EXPLANATIONS ARE SUGGESTED AFTER THE FIRST OCCURRENCE OF THIS MESSAGE.

               CONVERGENCE CHECKS FOR EQUILIBRIUM ITERATION     1


 AVERAGE FORCE                      0.518       TIME AVG. FORCE       0.257    
 LARGEST SCALED RESIDUAL FORCE      1.308E-06   AT NODE          5   DOF  3
  CORRESPONDING RESIDUAL FORCE      1.308E-06
 LARGEST INCREMENT OF DISP.         1.009E-03   AT NODE          1   DOF  2
 LARGEST CORRECTION TO DISP.        7.357E-06   AT NODE          5   DOF  3
          THE FORCE     EQUILIBRIUM EQUATIONS HAVE CONVERGED

 ITERATION SUMMARY FOR THE INCREMENT:   1 TOTAL ITERATIONS, OF WHICH
   0 ARE SEVERE DISCONTINUITY ITERATIONS AND  1 ARE EQUILIBRIUM ITERATIONS.

 TIME INCREMENT COMPLETED   2.51    ,  FRACTION OF STEP COMPLETED  0.252    
 STEP TIME COMPLETED        63.4    ,  TOTAL TIME COMPLETED         63.4    


  INCREMENT    48 STARTS. ATTEMPT NUMBER  1, TIME INCREMENT   2.51    
 
	SYMMETRIC DIRECT SPARSE SOLVER RUNNING ON
 	1 HOST:        1 MPI RANK  x 1 THREAD
 	NUMBER OF EQUATIONS:     18
 	NUMBER OF RHS:           1
 	NUMBER OF FLOPS:         2.109e+03

     CHECK POINT  START OF SOLVER     

     CHECK POINT  END OF SOLVER       

       ELAPSED USER TIME (SEC)      =   0.0000    
       ELAPSED SYSTEM TIME (SEC)    =   0.0000    
       ELAPSED TOTAL CPU TIME (SEC) =   0.0000    
       ELAPSED WALLCLOCK TIME (SEC) =            0
 

 ***WARNING: THE SYSTEM MATRIX HAS 1 NEGATIVE EIGENVALUES.
             EXPLANATIONS ARE SUGGESTED AFTER THE FIRST OCCURRENCE OF THIS MESSAGE.

               CONVERGENCE CHECKS FOR EQUILIBRIUM ITERATION     1


 AVERAGE FORCE                      0.518       TIME AVG. FORCE       0.263    
 LARGEST SCALED RESIDUAL FORCE      1.307E-06   AT NODE          5   DOF  3
  CORRESPONDING RESIDUAL FORCE      1.307E-06
 LARGEST INCREMENT OF DISP.         1.009E-03   AT NODE          1   DOF  2
 LARGEST CORRECTION TO DISP.        7.309E-06   AT NODE          5   DOF  3
          THE FORCE     EQUILIBRIUM EQUATIONS HAVE CONVERGED

 ITERATION SUMMARY FOR THE INCREMENT:   1 TOTAL ITERATIONS, OF WHICH
   0 ARE SEVERE DISCONTINUITY ITERATIONS AND  1 ARE EQUILIBRIUM ITERATIONS.

 TIME INCREMENT COMPLETED   2.51    ,  FRACTION OF STEP COMPLETED  0.262    
 STEP TIME COMPLETED        65.9    ,  TOTAL TIME COMPLETED         65.9    


  INCREMENT    49 STARTS. ATTEMPT NUMBER  1, TIME INCREMENT   2.51    
 
	SYMMETRIC DIRECT SPARSE SOLVER RUNNING ON
 	1 HOST:        1 MPI RANK  x 1 THREAD
 	NUMBER OF EQUATIONS:     18
 	NUMBER OF RHS:           1
 	NUMBER OF FLOPS:         2.109e+03

     CHECK POINT  START OF SOLVER     

     CHECK POINT  END OF SOLVER       

       ELAPSED USER TIME (SEC)      =   0.0000    
       ELAPSED SYSTEM TIME (SEC)    =   0.0000    
       ELAPSED TOTAL CPU TIME (SEC) =   0.0000    
       ELAPSED WALLCLOCK TIME (SEC) =            0
 

 ***WARNING: THE SYSTEM MATRIX HAS 1 NEGATIVE EIGENVALUES.
             EXPLANATIONS ARE SUGGESTED AFTER THE FIRST OCCURRENCE OF THIS MESSAGE.

               CONVERGENCE CHECKS FOR EQUILIBRIUM ITERATION     1


 AVERAGE FORCE                      0.519       TIME AVG. FORCE       0.268    
 LARGEST SCALED RESIDUAL FORCE      1.307E-06   AT NODE          5   DOF  3
  CORRESPONDING RESIDUAL FORCE      1.307E-06
 LARGEST INCREMENT OF DISP.         1.009E-03   AT NODE          1   DOF  2
 LARGEST CORRECTION TO DISP.        7.264E-06   AT NODE          5   DOF  3
          THE FORCE     EQUILIBRIUM EQUATIONS HAVE CONVERGED

 ITERATION SUMMARY FOR THE INCREMENT:   1 TOTAL ITERATIONS, OF WHICH
   0 ARE SEVERE DISCONTINUITY ITERATIONS AND  1 ARE EQUILIBRIUM ITERATIONS.

 TIME INCREMENT COMPLETED   2.51    ,  FRACTION OF STEP COMPLETED  0.272    
 STEP TIME COMPLETED        68.4    ,  TOTAL TIME COMPLETED         68.4    


  INCREMENT    50 STARTS. ATTEMPT NUMBER  1, TIME INCREMENT   2.51    
 
	SYMMETRIC DIRECT SPARSE SOLVER RUNNING ON
 	1 HOST:        1 MPI RANK  x 1 THREAD
 	NUMBER OF EQUATIONS:     18
 	NUMBER OF RHS:           1
 	NUMBER OF FLOPS:         2.109e+03

     CHECK POINT  START OF SOLVER     

     CHECK POINT  END OF SOLVER       

       ELAPSED USER TIME (SEC)      =   0.0000    
       ELAPSED SYSTEM TIME (SEC)    =   0.0000    
       ELAPSED TOTAL CPU TIME (SEC) =   0.0000    
       ELAPSED WALLCLOCK TIME (SEC) =            0
 

 ***WARNING: THE SYSTEM MATRIX HAS 1 NEGATIVE EIGENVALUES.
             EXPLANATIONS ARE SUGGESTED AFTER THE FIRST OCCURRENCE OF THIS MESSAGE.

               CONVERGENCE CHECKS FOR EQUILIBRIUM ITERATION     1


 AVERAGE FORCE                      0.519       TIME AVG. FORCE       0.273    
 LARGEST SCALED RESIDUAL FORCE      1.307E-06   AT NODE          5   DOF  3
  CORRESPONDING RESIDUAL FORCE      1.307E-06
[...]
       ELAPSED SYSTEM TIME (SEC)    =   0.0000    
       ELAPSED TOTAL CPU TIME (SEC) =   0.0000    
       ELAPSED WALLCLOCK TIME (SEC) =            0
 

 ***WARNING: THE SYSTEM MATRIX HAS 1 NEGATIVE EIGENVALUES.
             EXPLANATIONS ARE SUGGESTED AFTER THE FIRST OCCURRENCE OF THIS MESSAGE.

               CONVERGENCE CHECKS FOR EQUILIBRIUM ITERATION     1


 AVERAGE FORCE                      0.460       TIME AVG. FORCE       0.394    
 LARGEST SCALED RESIDUAL FORCE      2.265E-06   AT NODE          1   DOF  3
  CORRESPONDING RESIDUAL FORCE      2.265E-06
 LARGEST INCREMENT OF DISP.         1.009E-03   AT NODE          1   DOF  2
 LARGEST CORRECTION TO DISP.        4.876E-06   AT NODE          5   DOF  3
          THE FORCE     EQUILIBRIUM EQUATIONS HAVE CONVERGED

 ITERATION SUMMARY FOR THE INCREMENT:   1 TOTAL ITERATIONS, OF WHICH
   0 ARE SEVERE DISCONTINUITY ITERATIONS AND  1 ARE EQUILIBRIUM ITERATIONS.

 TIME INCREMENT COMPLETED   2.51    ,  FRACTION OF STEP COMPLETED  0.882    
 STEP TIME COMPLETED        222.    ,  TOTAL TIME COMPLETED         222.    


  INCREMENT   111 STARTS. ATTEMPT NUMBER  1, TIME INCREMENT   2.51    
 
	SYMMETRIC DIRECT SPARSE SOLVER RUNNING ON
 	1 HOST:        1 MPI RANK  x 1 THREAD
 	NUMBER OF EQUATIONS:     18
 	NUMBER OF RHS:           1
 	NUMBER OF FLOPS:         2.109e+03

     CHECK POINT  START OF SOLVER     

     CHECK POINT  END OF SOLVER       

       ELAPSED USER TIME (SEC)      =   0.0000    
       ELAPSED SYSTEM TIME (SEC)    =   0.0000    
       ELAPSED TOTAL CPU TIME (SEC) =   0.0000    
       ELAPSED WALLCLOCK TIME (SEC) =            0
 

 ***WARNING: THE SYSTEM MATRIX HAS 1 NEGATIVE EIGENVALUES.
             EXPLANATIONS ARE SUGGESTED AFTER THE FIRST OCCURRENCE OF THIS MESSAGE.

               CONVERGENCE CHECKS FOR EQUILIBRIUM ITERATION     1


 AVERAGE FORCE                      0.459       TIME AVG. FORCE       0.395    
 LARGEST SCALED RESIDUAL FORCE      2.407E-06   AT NODE          1   DOF  3
  CORRESPONDING RESIDUAL FORCE      2.407E-06
 LARGEST INCREMENT OF DISP.         1.009E-03   AT NODE          1   DOF  2
 LARGEST CORRECTION TO DISP.        4.744E-06   AT NODE          5   DOF  3
          THE FORCE     EQUILIBRIUM EQUATIONS HAVE CONVERGED

 ITERATION SUMMARY FOR THE INCREMENT:   1 TOTAL ITERATIONS, OF WHICH
   0 ARE SEVERE DISCONTINUITY ITERATIONS AND  1 ARE EQUILIBRIUM ITERATIONS.

 TIME INCREMENT COMPLETED   2.51    ,  FRACTION OF STEP COMPLETED  0.892    
 STEP TIME COMPLETED        224.    ,  TOTAL TIME COMPLETED         224.    


  INCREMENT   112 STARTS. ATTEMPT NUMBER  1, TIME INCREMENT   2.51    
 
	SYMMETRIC DIRECT SPARSE SOLVER RUNNING ON
 	1 HOST:        1 MPI RANK  x 1 THREAD
 	NUMBER OF EQUATIONS:     18
 	NUMBER OF RHS:           1
 	NUMBER OF FLOPS:         2.109e+03

     CHECK POINT  START OF SOLVER     

     CHECK POINT  END OF SOLVER       

       ELAPSED USER TIME (SEC)      =   0.0000    
       ELAPSED SYSTEM TIME (SEC)    =   0.0000    
       ELAPSED TOTAL CPU TIME (SEC) =   0.0000    
       ELAPSED WALLCLOCK TIME (SEC) =            0
 

 ***WARNING: THE SYSTEM MATRIX HAS 1 NEGATIVE EIGENVALUES.
             EXPLANATIONS ARE SUGGESTED AFTER THE FIRST OCCURRENCE OF THIS MESSAGE.

               CONVERGENCE CHECKS FOR EQUILIBRIUM ITERATION     1


 AVERAGE FORCE                      0.458       TIME AVG. FORCE       0.395    
 LARGEST SCALED RESIDUAL FORCE      2.553E-06   AT NODE          1   DOF  3
  CORRESPONDING RESIDUAL FORCE      2.553E-06
 LARGEST INCREMENT OF DISP.         1.009E-03   AT NODE          1   DOF  2
 LARGEST CORRECTION TO DISP.        4.606E-06   AT NODE          5   DOF  3
          THE FORCE     EQUILIBRIUM EQUATIONS HAVE CONVERGED

 ITERATION SUMMARY FOR THE INCREMENT:   1 TOTAL ITERATIONS, OF WHICH
   0 ARE SEVERE DISCONTINUITY ITERATIONS AND  1 ARE EQUILIBRIUM ITERATIONS.

 TIME INCREMENT COMPLETED   2.51    ,  FRACTION OF STEP COMPLETED  0.902    
 STEP TIME COMPLETED        227.    ,  TOTAL TIME COMPLETED         227.    


  INCREMENT   113 STARTS. ATTEMPT NUMBER  1, TIME INCREMENT   2.51    
 
	SYMMETRIC DIRECT SPARSE SOLVER RUNNING ON
 	1 HOST:        1 MPI RANK  x 1 THREAD
 	NUMBER OF EQUATIONS:     18
 	NUMBER OF RHS:           1
 	NUMBER OF FLOPS:         2.109e+03

     CHECK POINT  START OF SOLVER     

     CHECK POINT  END OF SOLVER       

       ELAPSED USER TIME (SEC)      =   0.0000    
       ELAPSED SYSTEM TIME (SEC)    =   0.0000    
       ELAPSED TOTAL CPU TIME (SEC) =   0.0000    
       ELAPSED WALLCLOCK TIME (SEC) =            0
 

 ***WARNING: THE SYSTEM MATRIX HAS 1 NEGATIVE EIGENVALUES.
             EXPLANATIONS ARE SUGGESTED AFTER THE FIRST OCCURRENCE OF THIS MESSAGE.

               CONVERGENCE CHECKS FOR EQUILIBRIUM ITERATION     1


 AVERAGE FORCE                      0.457       TIME AVG. FORCE       0.396    
 LARGEST SCALED RESIDUAL FORCE      2.700E-06   AT NODE          1   DOF  3
  CORRESPONDING RESIDUAL FORCE      2.700E-06
 LARGEST INCREMENT OF DISP.         1.009E-03   AT NODE          1   DOF  2
 LARGEST CORRECTION TO DISP.        4.462E-06   AT NODE          5   DOF  3
          THE FORCE     EQUILIBRIUM EQUATIONS HAVE CONVERGED

 ITERATION SUMMARY FOR THE INCREMENT:   1 TOTAL ITERATIONS, OF WHICH
   0 ARE SEVERE DISCONTINUITY ITERATIONS AND  1 ARE EQUILIBRIUM ITERATIONS.

 TIME INCREMENT COMPLETED   2.51    ,  FRACTION OF STEP COMPLETED  0.912    
 STEP TIME COMPLETED        229.    ,  TOTAL TIME COMPLETED         229.    


  INCREMENT   114 STARTS. ATTEMPT NUMBER  1, TIME INCREMENT   2.51    
 
	SYMMETRIC DIRECT SPARSE SOLVER RUNNING ON
 	1 HOST:        1 MPI RANK  x 1 THREAD
 	NUMBER OF EQUATIONS:     18
 	NUMBER OF RHS:           1
 	NUMBER OF FLOPS:         2.109e+03

     CHECK POINT  START OF SOLVER     

     CHECK POINT  END OF SOLVER       

       ELAPSED USER TIME (SEC)      =   0.0000    
       ELAPSED SYSTEM TIME (SEC)    =   0.0000    
       ELAPSED TOTAL CPU TIME (SEC) =   0.0000    
       ELAPSED WALLCLOCK TIME (SEC) =            0
 

 ***WARNING: THE SYSTEM MATRIX HAS 1 NEGATIVE EIGENVALUES.
             EXPLANATIONS ARE SUGGESTED AFTER THE FIRST OCCURRENCE OF THIS MESSAGE.

               CONVERGENCE CHECKS FOR EQUILIBRIUM ITERATION     1


 AVERAGE FORCE                      0.456       TIME AVG. FORCE       0.396    
 LARGEST SCALED RESIDUAL FORCE      2.851E-06   AT NODE          1   DOF  3
  CORRESPONDING RESIDUAL FORCE      2.851E-06
 LARGEST INCREMENT OF DISP.         1.009E-03   AT NODE          1   DOF  2
 LARGEST CORRECTION TO DISP.        4.313E-06   AT NODE          5   DOF  3
          THE FORCE     EQUILIBRIUM EQUATIONS HAVE CONVERGED

 ITERATION SUMMARY FOR THE INCREMENT:   1 TOTAL ITERATIONS, OF WHICH
   0 ARE SEVERE DISCONTINUITY ITERATIONS AND  1 ARE EQUILIBRIUM ITERATIONS.

 TIME INCREMENT COMPLETED   2.51    ,  FRACTION OF STEP COMPLETED  0.922    
 STEP TIME COMPLETED        232.    ,  TOTAL TIME COMPLETED         232.    


  INCREMENT   115 STARTS. ATTEMPT NUMBER  1, TIME INCREMENT   2.51    
 
	SYMMETRIC DIRECT SPARSE SOLVER RUNNING ON
 	1 HOST:        1 MPI RANK  x 1 THREAD
 	NUMBER OF EQUATIONS:     18
 	NUMBER OF RHS:           1
 	NUMBER OF FLOPS:         2.109e+03

     CHECK POINT  START OF SOLVER     

     CHECK POINT  END OF SOLVER       

       ELAPSED USER TIME (SEC)      =   0.0000    
       ELAPSED SYSTEM TIME (SEC)    =   0.0000    
       ELAPSED TOTAL CPU TIME (SEC) =   0.0000    
       ELAPSED WALLCLOCK TIME (SEC) =            0
 

 ***WARNING: THE SYSTEM MATRIX HAS 1 NEGATIVE EIGENVALUES.
             EXPLANATIONS ARE SUGGESTED AFTER THE FIRST OCCURRENCE OF THIS MESSAGE.

               CONVERGENCE CHECKS FOR EQUILIBRIUM ITERATION     1


 AVERAGE FORCE                      0.455       TIME AVG. FORCE       0.397    
 LARGEST SCALED RESIDUAL FORCE      3.002E-06   AT NODE          1   DOF  3
  CORRESPONDING RESIDUAL FORCE      3.002E-06
 LARGEST INCREMENT OF DISP.         1.009E-03   AT NODE          1   DOF  2
 LARGEST CORRECTION TO DISP.        4.158E-06   AT NODE          5   DOF  3
          THE FORCE     EQUILIBRIUM EQUATIONS HAVE CONVERGED

 ITERATION SUMMARY FOR THE INCREMENT:   1 TOTAL ITERATIONS, OF WHICH
   0 ARE SEVERE DISCONTINUITY ITERATIONS AND  1 ARE EQUILIBRIUM ITERATIONS.

 TIME INCREMENT COMPLETED   2.51    ,  FRACTION OF STEP COMPLETED  0.932    
 STEP TIME COMPLETED        234.    ,  TOTAL TIME COMPLETED         234.    


  INCREMENT   116 STARTS. ATTEMPT NUMBER  1, TIME INCREMENT   2.51    
 
	SYMMETRIC DIRECT SPARSE SOLVER RUNNING ON
 	1 HOST:        1 MPI RANK  x 1 THREAD
 	NUMBER OF EQUATIONS:     18
 	NUMBER OF RHS:           1
 	NUMBER OF FLOPS:         2.109e+03

     CHECK POINT  START OF SOLVER     

     CHECK POINT  END OF SOLVER       

       ELAPSED USER TIME (SEC)      =   0.0000    
       ELAPSED SYSTEM TIME (SEC)    =   0.0000    
       ELAPSED TOTAL CPU TIME (SEC) =   0.0000    
       ELAPSED WALLCLOCK TIME (SEC) =            0
 

 ***WARNING: THE SYSTEM MATRIX HAS 1 NEGATIVE EIGENVALUES.
             EXPLANATIONS ARE SUGGESTED AFTER THE FIRST OCCURRENCE OF THIS MESSAGE.

               CONVERGENCE CHECKS FOR EQUILIBRIUM ITERATION     1


 AVERAGE FORCE                      0.454       TIME AVG. FORCE       0.397    
 LARGEST SCALED RESIDUAL FORCE      3.156E-06   AT NODE          1   DOF  3
  CORRESPONDING RESIDUAL FORCE      3.156E-06
 LARGEST INCREMENT OF DISP.         1.009E-03   AT NODE          1   DOF  2
 LARGEST CORRECTION TO DISP.        3.998E-06   AT NODE          5   DOF  3
          THE FORCE     EQUILIBRIUM EQUATIONS HAVE CONVERGED

 ITERATION SUMMARY FOR THE INCREMENT:   1 TOTAL ITERATIONS, OF WHICH
   0 ARE SEVERE DISCONTINUITY ITERATIONS AND  1 ARE EQUILIBRIUM ITERATIONS.

 TIME INCREMENT COMPLETED   2.51    ,  FRACTION OF STEP COMPLETED  0.942    
 STEP TIME COMPLETED        237.    ,  TOTAL TIME COMPLETED         237.    


  INCREMENT   117 STARTS. ATTEMPT NUMBER  1, TIME INCREMENT   2.51    
 
	SYMMETRIC DIRECT SPARSE SOLVER RUNNING ON
 	1 HOST:        1 MPI RANK  x 1 THREAD
 	NUMBER OF EQUATIONS:     18
 	NUMBER OF RHS:           1
 	NUMBER OF FLOPS:         2.109e+03

     CHECK POINT  START OF SOLVER     

     CHECK POINT  END OF SOLVER       

       ELAPSED USER TIME (SEC)      =   0.0000    
       ELAPSED SYSTEM TIME (SEC)    =   0.0000    
       ELAPSED TOTAL CPU TIME (SEC) =   0.0000    
       ELAPSED WALLCLOCK TIME (SEC) =            0
 

 ***WARNING: THE SYSTEM MATRIX HAS 1 NEGATIVE EIGENVALUES.
             EXPLANATIONS ARE SUGGESTED AFTER THE FIRST OCCURRENCE OF THIS MESSAGE.

               CONVERGENCE CHECKS FOR EQUILIBRIUM ITERATION     1


 AVERAGE FORCE                      0.453       TIME AVG. FORCE       0.398    
 LARGEST SCALED RESIDUAL FORCE      3.309E-06   AT NODE          1   DOF  3
  CORRESPONDING RESIDUAL FORCE      3.309E-06
 LARGEST INCREMENT OF DISP.         1.009E-03   AT NODE          1   DOF  2
 LARGEST CORRECTION TO DISP.        3.833E-06   AT NODE          5   DOF  3
          THE FORCE     EQUILIBRIUM EQUATIONS HAVE CONVERGED

 ITERATION SUMMARY FOR THE INCREMENT:   1 TOTAL ITERATIONS, OF WHICH
   0 ARE SEVERE DISCONTINUITY ITERATIONS AND  1 ARE EQUILIBRIUM ITERATIONS.

 TIME INCREMENT COMPLETED   2.51    ,  FRACTION OF STEP COMPLETED  0.952    
 STEP TIME COMPLETED        239.    ,  TOTAL TIME COMPLETED         239.    


  INCREMENT   118 STARTS. ATTEMPT NUMBER  1, TIME INCREMENT   2.51    
 
	SYMMETRIC DIRECT SPARSE SOLVER RUNNING ON
 	1 HOST:        1 MPI RANK  x 1 THREAD
 	NUMBER OF EQUATIONS:     18
 	NUMBER OF RHS:           1
 	NUMBER OF FLOPS:         2.109e+03

     CHECK POINT  START OF SOLVER     

     CHECK POINT  END OF SOLVER       

       ELAPSED USER TIME (SEC)      =   0.0000    
       ELAPSED SYSTEM TIME (SEC)    =   0.0000    
       ELAPSED TOTAL CPU TIME (SEC) =   0.0000    
       ELAPSED WALLCLOCK TIME (SEC) =            0
 

 ***WARNING: THE SYSTEM MATRIX HAS 1 NEGATIVE EIGENVALUES.
             EXPLANATIONS ARE SUGGESTED AFTER THE FIRST OCCURRENCE OF THIS MESSAGE.

               CONVERGENCE CHECKS FOR EQUILIBRIUM ITERATION     1


 AVERAGE FORCE                      0.451       TIME AVG. FORCE       0.398    
 LARGEST SCALED RESIDUAL FORCE      3.463E-06   AT NODE          1   DOF  3
  CORRESPONDING RESIDUAL FORCE      3.463E-06
 LARGEST INCREMENT OF DISP.         1.009E-03   AT NODE          1   DOF  2
 LARGEST CORRECTION TO DISP.        3.663E-06   AT NODE          5   DOF  3
          THE FORCE     EQUILIBRIUM EQUATIONS HAVE CONVERGED

 ITERATION SUMMARY FOR THE INCREMENT:   1 TOTAL ITERATIONS, OF WHICH
   0 ARE SEVERE DISCONTINUITY ITERATIONS AND  1 ARE EQUILIBRIUM ITERATIONS.

 TIME INCREMENT COMPLETED   2.51    ,  FRACTION OF STEP COMPLETED  0.962    
 STEP TIME COMPLETED        242.    ,  TOTAL TIME COMPLETED         242.    


  INCREMENT   119 STARTS. ATTEMPT NUMBER  1, TIME INCREMENT   2.51    
 
	SYMMETRIC DIRECT SPARSE SOLVER RUNNING ON
 	1 HOST:        1 MPI RANK  x 1 THREAD
 	NUMBER OF EQUATIONS:     18
 	NUMBER OF RHS:           1
 	NUMBER OF FLOPS:         2.109e+03

     CHECK POINT  START OF SOLVER     

     CHECK POINT  END OF SOLVER       

       ELAPSED USER TIME (SEC)      =   0.0000    
       ELAPSED SYSTEM TIME (SEC)    =   0.0000    
       ELAPSED TOTAL CPU TIME (SEC) =   0.0000    
       ELAPSED WALLCLOCK TIME (SEC) =            0
 

 ***WARNING: THE SYSTEM MATRIX HAS 1 NEGATIVE EIGENVALUES.
             EXPLANATIONS ARE SUGGESTED AFTER THE FIRST OCCURRENCE OF THIS MESSAGE.

               CONVERGENCE CHECKS FOR EQUILIBRIUM ITERATION     1


 AVERAGE FORCE                      0.450       TIME AVG. FORCE       0.399    
 LARGEST SCALED RESIDUAL FORCE      3.616E-06   AT NODE          1   DOF  3
  CORRESPONDING RESIDUAL FORCE      3.616E-06
 LARGEST INCREMENT OF DISP.         1.009E-03   AT NODE          1   DOF  2
 LARGEST CORRECTION TO DISP.        3.489E-06   AT NODE          5   DOF  3
          THE FORCE     EQUILIBRIUM EQUATIONS HAVE CONVERGED

 ITERATION SUMMARY FOR THE INCREMENT:   1 TOTAL ITERATIONS, OF WHICH
   0 ARE SEVERE DISCONTINUITY ITERATIONS AND  1 ARE EQUILIBRIUM ITERATIONS.

 TIME INCREMENT COMPLETED   2.51    ,  FRACTION OF STEP COMPLETED  0.972    
 STEP TIME COMPLETED        244.    ,  TOTAL TIME COMPLETED         244.    


  INCREMENT   120 STARTS. ATTEMPT NUMBER  1, TIME INCREMENT   2.51    
 
	SYMMETRIC DIRECT SPARSE SOLVER RUNNING ON
 	1 HOST:        1 MPI RANK  x 1 THREAD
 	NUMBER OF EQUATIONS:     18
 	NUMBER OF RHS:           1
 	NUMBER OF FLOPS:         2.109e+03

     CHECK POINT  START OF SOLVER     

     CHECK POINT  END OF SOLVER       

       ELAPSED USER TIME (SEC)      =   0.0000    
       ELAPSED SYSTEM TIME (SEC)    =   0.0000    
       ELAPSED TOTAL CPU TIME (SEC) =   0.0000    
       ELAPSED WALLCLOCK TIME (SEC) =            0
 

 ***WARNING: THE SYSTEM MATRIX HAS 1 NEGATIVE EIGENVALUES.
             EXPLANATIONS ARE SUGGESTED AFTER THE FIRST OCCURRENCE OF THIS MESSAGE.

               CONVERGENCE CHECKS FOR EQUILIBRIUM ITERATION     1


 AVERAGE FORCE                      0.449       TIME AVG. FORCE       0.399    
 LARGEST SCALED RESIDUAL FORCE      3.768E-06   AT NODE          1   DOF  3
  CORRESPONDING RESIDUAL FORCE      3.768E-06
 LARGEST INCREMENT OF DISP.         1.009E-03   AT NODE          1   DOF  2
 LARGEST CORRECTION TO DISP.        3.311E-06   AT NODE          5   DOF  3
          THE FORCE     EQUILIBRIUM EQUATIONS HAVE CONVERGED

 ITERATION SUMMARY FOR THE INCREMENT:   1 TOTAL ITERATIONS, OF WHICH
   0 ARE SEVERE DISCONTINUITY ITERATIONS AND  1 ARE EQUILIBRIUM ITERATIONS.

 TIME INCREMENT COMPLETED   2.51    ,  FRACTION OF STEP COMPLETED  0.982    
 STEP TIME COMPLETED        247.    ,  TOTAL TIME COMPLETED         247.    


  INCREMENT   121 STARTS. ATTEMPT NUMBER  1, TIME INCREMENT   2.51    
 
	SYMMETRIC DIRECT SPARSE SOLVER RUNNING ON
 	1 HOST:        1 MPI RANK  x 1 THREAD
 	NUMBER OF EQUATIONS:     18
 	NUMBER OF RHS:           1
 	NUMBER OF FLOPS:         2.109e+03

     CHECK POINT  START OF SOLVER     

     CHECK POINT  END OF SOLVER       

       ELAPSED USER TIME (SEC)      =   0.0000    
       ELAPSED SYSTEM TIME (SEC)    =   0.0000    
       ELAPSED TOTAL CPU TIME (SEC) =   0.0000    
       ELAPSED WALLCLOCK TIME (SEC) =            0
 

 ***WARNING: THE SYSTEM MATRIX HAS 1 NEGATIVE EIGENVALUES.
             EXPLANATIONS ARE SUGGESTED AFTER THE FIRST OCCURRENCE OF THIS MESSAGE.

               CONVERGENCE CHECKS FOR EQUILIBRIUM ITERATION     1


 AVERAGE FORCE                      0.448       TIME AVG. FORCE       0.399    
 LARGEST SCALED RESIDUAL FORCE      3.918E-06   AT NODE          1   DOF  3
  CORRESPONDING RESIDUAL FORCE      3.918E-06
 LARGEST INCREMENT OF DISP.         1.009E-03   AT NODE          1   DOF  2
 LARGEST CORRECTION TO DISP.        3.130E-06   AT NODE          5   DOF  3
          THE FORCE     EQUILIBRIUM EQUATIONS HAVE CONVERGED

 ITERATION SUMMARY FOR THE INCREMENT:   1 TOTAL ITERATIONS, OF WHICH
   0 ARE SEVERE DISCONTINUITY ITERATIONS AND  1 ARE EQUILIBRIUM ITERATIONS.

 TIME INCREMENT COMPLETED   2.51    ,  FRACTION OF STEP COMPLETED  0.992    
 STEP TIME COMPLETED        249.    ,  TOTAL TIME COMPLETED         249.    


  INCREMENT   122 STARTS. ATTEMPT NUMBER  1, TIME INCREMENT   1.90    
 
	SYMMETRIC DIRECT SPARSE SOLVER RUNNING ON
 	1 HOST:        1 MPI RANK  x 1 THREAD
 	NUMBER OF EQUATIONS:     18
 	NUMBER OF RHS:           1
 	NUMBER OF FLOPS:         2.109e+03

     CHECK POINT  START OF SOLVER     

     CHECK POINT  END OF SOLVER       

       ELAPSED USER TIME (SEC)      =   0.0000    
       ELAPSED SYSTEM TIME (SEC)    =   0.0000    
       ELAPSED TOTAL CPU TIME (SEC) =   0.0000    
       ELAPSED WALLCLOCK TIME (SEC) =            0
 

 ***WARNING: THE SYSTEM MATRIX HAS 1 NEGATIVE EIGENVALUES.
             EXPLANATIONS ARE SUGGESTED AFTER THE FIRST OCCURRENCE OF THIS MESSAGE.

               CONVERGENCE CHECKS FOR EQUILIBRIUM ITERATION     1


 AVERAGE FORCE                      0.447       TIME AVG. FORCE       0.400    
 LARGEST SCALED RESIDUAL FORCE      2.074E-06   AT NODE          1   DOF  3
  CORRESPONDING RESIDUAL FORCE      2.074E-06
 LARGEST INCREMENT OF DISP.         7.624E-04   AT NODE          1   DOF  2
 LARGEST CORRECTION TO DISP.        1.426E-06   AT NODE          5   DOF  3
          THE FORCE     EQUILIBRIUM EQUATIONS HAVE CONVERGED

 ITERATION SUMMARY FOR THE INCREMENT:   1 TOTAL ITERATIONS, OF WHICH
   0 ARE SEVERE DISCONTINUITY ITERATIONS AND  1 ARE EQUILIBRIUM ITERATIONS.

 TIME INCREMENT COMPLETED   1.90    ,  FRACTION OF STEP COMPLETED   1.00    
 STEP TIME COMPLETED        251.    ,  TOTAL TIME COMPLETED         251.    


          THE ANALYSIS HAS BEEN COMPLETED



     ANALYSIS SUMMARY:
     TOTAL OF        122  INCREMENTS
                       0  CUTBACKS IN AUTOMATIC INCREMENTATION
                     126  ITERATIONS INCLUDING CONTACT ITERATIONS IF PRESENT
                     126  PASSES THROUGH THE EQUATION SOLVER OF WHICH 
                     126  INVOLVE MATRIX DECOMPOSITION, INCLUDING
                       0  DECOMPOSITION(S) OF THE MASS MATRIX
                       1  REORDERING OF EQUATIONS TO MINIMIZE WAVEFRONT
                       0  ADDITIONAL RESIDUAL EVALUATIONS FOR LINE SEARCHES
                       0  ADDITIONAL OPERATOR EVALUATIONS FOR LINE SEARCHES
                       4  WARNING MESSAGES DURING USER INPUT PROCESSING
                      96  WARNING MESSAGES DURING ANALYSIS
                       0  ANALYSIS WARNINGS ARE NUMERICAL PROBLEM MESSAGES
                      96  ANALYSIS WARNINGS ARE NEGATIVE EIGENVALUE MESSAGES
                       0  ERROR MESSAGES



     JOB TIME SUMMARY
       USER TIME (SEC)      =     0.40    
       SYSTEM TIME (SEC)    =     0.20    
       TOTAL CPU TIME (SEC) =     0.60    
       WALLCLOCK TIME (SEC) =            4
       MEMORY PEAK (GB)     =            0
