 Abaqus/Standard 2023                  DATE 23-Jul-2024 TIME 18:01:39
 SUMMARY OF JOB INFORMATION:
 STEP  INC ATT SEVERE EQUIL TOTAL  TOTAL      STEP       INC OF       DOF    IF
               DISCON ITERS ITERS  TIME/    TIME/LPF    TIME/LPF    MONITOR RIKS
               ITERS               FREQ
   1     1   1     0     2     2  0.000251   0.000251   0.0002512 
   1     2   1     0     1     1  0.000502   0.000502   0.0002512 
   1     3   1     0     1     1  0.000879   0.000879   0.0003767 
   1     4   1     0     1     1  0.00144    0.00144    0.0005651 
   1     5   1     0     1     1  0.00229    0.00229    0.0008476 
   1     6   1     0     1     1  0.00356    0.00356    0.001271  
   1     7   1     0     1     1  0.00547    0.00547    0.001907  
   1     8   1     0     1     1  0.00833    0.00833    0.002861  
   1     9   1     0     1     1  0.0126     0.0126     0.004291  
   1    10   1     0     1     1  0.0191     0.0191     0.006437  
   1    11   1     0     1     1  0.0287     0.0287     0.009655  
   1    12   1     0     1     1  0.0432     0.0432     0.01448   
   1    13   1     0     1     1  0.0649     0.0649     0.02172   
   1    14   1     0     1     1  0.0975     0.0975     0.03259   
   1    15   1     0     1     1  0.146      0.146      0.04888   
   1    16   1     0     1     1  0.220      0.220      0.07332   
   1    17   1     0     1     1  0.330      0.330      0.1100    
   1    18   1     0     1     1  0.495      0.495      0.1650    
   1    19   1     0     1     1  0.742      0.742      0.2474    
   1    20   1     0     1     1  1.11       1.11       0.3712    
   1    21   1     0     1     1  1.67       1.67       0.5568    
   1    22   1     0     1     1  2.51       2.51       0.8351    
   1    23   1     0     3     3  3.76       3.76       1.253     
   1    24   1     0     2     2  5.64       5.64       1.879     
   1    25   1     0     1     1  8.15       8.15       2.511     
   1    26   1     0     1     1  10.7       10.7       2.511     
   1    27   1     0     1     1  13.2       13.2       2.511     
   1    28   1     0     1     1  15.7       15.7       2.511     
   1    29   1     0     1     1  18.2       18.2       2.511     
   1    30   1     0     1     1  20.7       20.7       2.511     
   1    31   1     0     1     1  23.2       23.2       2.511     
   1    32   1     0     1     1  25.7       25.7       2.511     
   1    33   1     0     1     1  28.2       28.2       2.511     
   1    34   1     0     1     1  30.8       30.8       2.511     
   1    35   1     0     1     1  33.3       33.3       2.511     
   1    36   1     0     1     1  35.8       35.8       2.511     
   1    37   1     0     1     1  38.3       38.3       2.511     
   1    38   1     0     1     1  40.8       40.8       2.511     
   1    39   1     0     1     1  43.3       43.3       2.511     
   1    40   1     0     1     1  45.8       45.8       2.511     
   1    41   1     0     1     1  48.3       48.3       2.511     
   1    42   1     0     1     1  50.8       50.8       2.511     
   1    43   1     0     1     1  53.4       53.4       2.511     
   1    44   1     0     1     1  55.9       55.9       2.511     
   1    45   1     0     1     1  58.4       58.4       2.511     
   1    46   1     0     1     1  60.9       60.9       2.511     
   1    47   1     0     1     1  63.4       63.4       2.511     
   1    48   1     0     1     1  65.9       65.9       2.511     
   1    49   1     0     1     1  68.4       68.4       2.511     
   1    50   1     0     1     1  70.9       70.9       2.511     
   1    51   1     0     1     1  73.4       73.4       2.511     
   1    52   1     0     1     1  76.0       76.0       2.511     
   1    53   1     0     1     1  78.5       78.5       2.511     
   1    54   1     0     1     1  81.0       81.0       2.511     
   1    55   1     0     1     1  83.5       83.5       2.511     
   1    56   1     0     1     1  86.0       86.0       2.511     
   1    57   1     0     1     1  88.5       88.5       2.511     
   1    58   1     0     1     1  91.0       91.0       2.511     
   1    59   1     0     1     1  93.5       93.5       2.511     
   1    60   1     0     1     1  96.1       96.1       2.511     
   1    61   1     0     1     1  98.6       98.6       2.511     
   1    62   1     0     1     1  101.       101.       2.511     
   1    63   1     0     1     1  104.       104.       2.511     
   1    64   1     0     1     1  106.       106.       2.511     
   1    65   1     0     1     1  109.       109.       2.511     
   1    66   1     0     1     1  111.       111.       2.511     
   1    67   1     0     1     1  114.       114.       2.511     
   1    68   1     0     1     1  116.       116.       2.511     
   1    69   1     0     1     1  119.       119.       2.511     
   1    70   1     0     1     1  121.       121.       2.511     
   1    71   1     0     1     1  124.       124.       2.511     
   1    72   1     0     1     1  126.       126.       2.511     
   1    73   1     0     1     1  129.       129.       2.511     
   1    74   1     0     1     1  131.       131.       2.511     
   1    75   1     0     1     1  134.       134.       2.511     
   1    76   1     0     1     1  136.       136.       2.511     
   1    77   1     0     1     1  139.       139.       2.511     
   1    78   1     0     1     1  141.       141.       2.511     
   1    79   1     0     1     1  144.       144.       2.511     
   1    80   1     0     1     1  146.       146.       2.511     
   1    81   1     0     1     1  149.       149.       2.511     
   1    82   1     0     1     1  151.       151.       2.511     
   1    83   1     0     1     1  154.       154.       2.511     
   1    84   1     0     1     1  156.       156.       2.511     
   1    85   1     0     1     1  159.       159.       2.511     
   1    86   1     0     1     1  161.       161.       2.511     
   1    87   1     0     1     1  164.       164.       2.511     
   1    88   1     0     1     1  166.       166.       2.511     
   1    89   1     0     1     1  169.       169.       2.511     
   1    90   1     0     1     1  171.       171.       2.511     
   1    91   1     0     1     1  174.       174.       2.511     
   1    92   1     0     1     1  176.       176.       2.511     
   1    93   1     0     1     1  179.       179.       2.511     
   1    94   1     0     1     1  181.       181.       2.511     
   1    95   1     0     1     1  184.       184.       2.511     
   1    96   1     0     1     1  186.       186.       2.511     
   1    97   1     0     1     1  189.       189.       2.511     
   1    98   1     0     1     1  191.       191.       2.511     
   1    99   1     0     1     1  194.       194.       2.511     
   1   100   1     0     1     1  197.       197.       2.511     
   1   101   1     0     1     1  199.       199.       2.511     
   1   102   1     0     1     1  202.       202.       2.511     
   1   103   1     0     1     1  204.       204.       2.511     
   1   104   1     0     1     1  207.       207.       2.511     
   1   105   1     0     1     1  209.       209.       2.511     
   1   106   1     0     1     1  212.       212.       2.511     
   1   107   1     0     1     1  214.       214.       2.511     
   1   108   1     0     1     1  217.       217.       2.511     
   1   109   1     0     1     1  219.       219.       2.511     
   1   110   1     0     1     1  222.       222.       2.511     
   1   111   1     0     1     1  224.       224.       2.511     
   1   112   1     0     1     1  227.       227.       2.511     
   1   113   1     0     1     1  229.       229.       2.511     
   1   114   1     0     1     1  232.       232.       2.511     
   1   115   1     0     1     1  234.       234.       2.511     
   1   116   1     0     1     1  237.       237.       2.511     
   1   117   1     0     1     1  239.       239.       2.511     
   1   118   1     0     1     1  242.       242.       2.511     
   1   119   1     0     1     1  244.       244.       2.511     
   1   120   1     0     1     1  247.       247.       2.511     
   1   121   1     0     1     1  249.       249.       2.511     
   1   122   1     0     1     1  251.       251.       1.898     
                          
 THE ANALYSIS HAS COMPLETED SUCCESSFULLY
