1

   Abaqus 2023                                  Date 31-May-2024   Time 15:29:51
   For use by ETH ZUERICH under license from Dassault Systemes or its subsidiary.

                                                                                 
                                                                                 
 STEP    1     INCREMENT     1     STEP TIME    0.00    


                        S T E P       1     S T A T I C   A N A L Y S I S


                                                                                          

     AUTOMATIC TIME CONTROL WITH -
          A SUGGESTED INITIAL TIME INCREMENT OF                1.000E-05
          AND A TOTAL TIME PERIOD OF                            1.00    
          THE MINIMUM TIME INCREMENT ALLOWED IS                1.000E-05
          THE MAXIMUM TIME INCREMENT ALLOWED IS                1.000E-03

     LINEAR EQUATION SOLVER TYPE         DIRECT SPARSE

 CONVERGENCE TOLERANCE PARAMETERS FOR FORCE    
     CRITERION FOR RESIDUAL FORCE     FOR A NONLINEAR PROBLEM          5.000E-03
     CRITERION FOR DISP.    CORRECTION IN A NONLINEAR PROBLEM          1.000E-02
     INITIAL VALUE OF TIME AVERAGE FORCE                               1.000E-02
     AVERAGE FORCE     IS TIME AVERAGE FORCE    
     ALTERNATE CRIT. FOR RESIDUAL FORCE     FOR A NONLINEAR PROBLEM    2.000E-02
     CRITERION FOR ZERO FORCE     RELATIVE TO TIME AVRG. FORCE         1.000E-05
     CRITERION FOR RESIDUAL FORCE     WHEN THERE IS ZERO FLUX          1.000E-05
     CRITERION FOR DISP.    CORRECTION WHEN THERE IS ZERO FLUX         1.000E-03
     CRITERION FOR RESIDUAL FORCE     FOR A LINEAR INCREMENT           1.000E-08
     FIELD CONVERSION RATIO                                             1.00    
     CRITERION FOR ZERO FORCE     REL. TO TIME AVRG. MAX. FORCE        1.000E-05
     CRITERION FOR ZERO DISP.    RELATIVE TO CHARACTERISTIC LENGTH     1.000E-08

     VOLUMETRIC STRAIN COMPATIBILITY TOLERANCE FOR HYBRID SOLIDS       1.000E-05
     AXIAL STRAIN COMPATIBILITY TOLERANCE FOR HYBRID BEAMS             1.000E-05
     TRANS. SHEAR STRAIN COMPATIBILITY TOLERANCE FOR HYBRID BEAMS      1.000E-05
     SOFT CONTACT CONSTRAINT COMPATIBILITY TOLERANCE FOR P>P0          5.000E-03
     SOFT CONTACT CONSTRAINT COMPATIBILITY TOLERANCE FOR P=0.0         0.100    
     CONTACT FORCE ERROR TOLERANCE FOR CONVERT SDI=YES                 1.00    
     DISPLACEMENT COMPATIBILITY TOLERANCE FOR DCOUP ELEMENTS           1.000E-05
     ROTATION COMPATIBILITY TOLERANCE FOR DCOUP ELEMENTS               1.000E-05

 EQUILIBRIUM WILL BE CHECKED FOR SEVERE DISCONTINUITY ITERATIONS

 TIME INCREMENTATION CONTROL PARAMETERS:
     FIRST EQUILIBRIUM ITERATION FOR CONSECUTIVE DIVERGENCE CHECK              4
     EQUILIBRIUM ITERATION AT WHICH LOG. CONVERGENCE RATE CHECK BEGINS         8
     EQUILIBRIUM ITERATION AFTER WHICH ALTERNATE RESIDUAL IS USED              9
     MAXIMUM EQUILIBRIUM ITERATIONS ALLOWED                                   16
     EQUILIBRIUM ITERATION COUNT FOR CUT-BACK IN NEXT INCREMENT               10
     MAXIMUM EQUILIB. ITERS IN TWO INCREMENTS FOR TIME INCREMENT INCREASE      4
     MAXIMUM ITERATIONS FOR SEVERE DISCONTINUITIES                            50
     MAXIMUM ATTEMPTS ALLOWED IN AN INCREMENT                                  5
     MAXIMUM DISCON. ITERS IN TWO INCREMENTS FOR TIME INCREMENT INCREASE      50
     MAXIMUM CONTACT AUGMENTATIONS FOR *SURFACE BEHAVIOR,AUGMENTED LAGRANGE   50
     CUT-BACK FACTOR AFTER DIVERGENCE                                 0.2500    
     CUT-BACK FACTOR FOR TOO SLOW CONVERGENCE                         0.5000    
     CUT-BACK FACTOR AFTER TOO MANY EQUILIBRIUM ITERATIONS            0.7500    
     CUT-BACK FACTOR AFTER TOO MANY SEVERE DISCONTINUITY ITERATIONS   0.2500    
     CUT-BACK FACTOR AFTER PROBLEMS IN ELEMENT ASSEMBLY               0.2500    
     INCREASE FACTOR AFTER TWO INCREMENTS THAT CONVERGE QUICKLY        1.500    
     MAX. TIME INCREMENT INCREASE FACTOR ALLOWED                       1.500    
     MAX. TIME INCREMENT INCREASE FACTOR ALLOWED (DYNAMICS)            1.250    
     MAX. TIME INCREMENT INCREASE FACTOR ALLOWED (DIFFUSION)           2.000    
     MINIMUM TIME INCREMENT RATIO FOR EXTRAPOLATION TO OCCUR          0.1000    
     MAX. RATIO OF TIME INCREMENT TO STABILITY LIMIT                   1.000    
     FRACTION OF STABILITY LIMIT FOR NEW TIME INCREMENT               0.9500    
     TIME INCREMENT INCREASE FACTOR BEFORE A TIME POINT                1.000    
     GLOBAL STABILIZATION CONTROL IS NOT USED

          PRINT OF INCREMENT NUMBER, TIME, ETC., EVERY    1  INCREMENTS

     THE MAXIMUM NUMBER OF INCREMENTS IN THIS STEP IS                    1000

          LARGE DISPLACEMENT THEORY WILL BE USED

     LINEAR EXTRAPOLATION WILL BE USED

     CHARACTERISTIC ELEMENT LENGTH     0.100    

     DETAILS REGARDING ACTUAL SOLUTION WAVEFRONT REQUESTED

     DETAILED OUTPUT OF DIAGNOSTICS TO DATABASE REQUESTED

     PRINT OF INCREMENT NUMBER, TIME, ETC., TO THE MESSAGE FILE EVERY     1  INCREMENTS

     COLLECTING MODEL CONSTRAINT INFORMATION FOR OVERCONSTRAINT CHECKS

     COLLECTING STEP CONSTRAINT INFORMATION FOR OVERCONSTRAINT CHECKS


  INCREMENT     1 STARTS. ATTEMPT NUMBER  1, TIME INCREMENT  1.000E-05
 
	SYMMETRIC DIRECT SPARSE SOLVER RUNNING ON
 	1 HOST:        1 MPI RANK  x 1 THREAD
 	NUMBER OF EQUATIONS:     18
 	NUMBER OF RHS:           1
 	NUMBER OF FLOPS:         2.109e+03

     CHECK POINT  START OF SOLVER     

     CHECK POINT  END OF SOLVER       

       ELAPSED USER TIME (SEC)      =   0.0000    
       ELAPSED SYSTEM TIME (SEC)    =   0.0000    
       ELAPSED TOTAL CPU TIME (SEC) =   0.0000    
       ELAPSED WALLCLOCK TIME (SEC) =            0

               CONVERGENCE CHECKS FOR EQUILIBRIUM ITERATION     1


 AVERAGE FORCE                      4.962E-03   TIME AVG. FORCE       4.962E-03
 LARGEST SCALED RESIDUAL FORCE      5.582E-08   AT NODE          5   DOF  3
  CORRESPONDING RESIDUAL FORCE      5.582E-08
 LARGEST INCREMENT OF DISP.         1.000E-06   AT NODE          1   DOF  1
 LARGEST CORRECTION TO DISP.        1.000E-06   AT NODE          1   DOF  1
          DISP.    CORRECTION TOO LARGE COMPARED TO DISP.    INCREMENT
 
	SYMMETRIC DIRECT SPARSE SOLVER RUNNING ON
 	1 HOST:        1 MPI RANK  x 1 THREAD
 	NUMBER OF EQUATIONS:     18
 	NUMBER OF RHS:           1
 	NUMBER OF FLOPS:         2.109e+03

     CHECK POINT  START OF SOLVER     

     CHECK POINT  END OF SOLVER       

       ELAPSED USER TIME (SEC)      =   0.0000    
       ELAPSED SYSTEM TIME (SEC)    =   0.0000    
       ELAPSED TOTAL CPU TIME (SEC) =   0.0000    
       ELAPSED WALLCLOCK TIME (SEC) =            0

               CONVERGENCE CHECKS FOR EQUILIBRIUM ITERATION     2


 AVERAGE FORCE                      4.962E-03   TIME AVG. FORCE       4.962E-03
 LARGEST SCALED RESIDUAL FORCE      9.992E-18   AT NODE          1   DOF  3
  CORRESPONDING RESIDUAL FORCE      9.992E-18
 LARGEST INCREMENT OF DISP.         1.000E-06   AT NODE          1   DOF  1
 LARGEST CORRECTION TO DISP.        7.959E-12   AT NODE          5   DOF  3
          THE FORCE     EQUILIBRIUM EQUATIONS HAVE CONVERGED

 ITERATION SUMMARY FOR THE INCREMENT:   2 TOTAL ITERATIONS, OF WHICH
   0 ARE SEVERE DISCONTINUITY ITERATIONS AND  2 ARE EQUILIBRIUM ITERATIONS.

 TIME INCREMENT COMPLETED  1.000E-05,  FRACTION OF STEP COMPLETED  1.000E-05
 STEP TIME COMPLETED       1.000E-05,  TOTAL TIME COMPLETED        1.000E-05


  INCREMENT     2 STARTS. ATTEMPT NUMBER  1, TIME INCREMENT  1.000E-05
 
	SYMMETRIC DIRECT SPARSE SOLVER RUNNING ON
 	1 HOST:        1 MPI RANK  x 1 THREAD
 	NUMBER OF EQUATIONS:     18
 	NUMBER OF RHS:           1
 	NUMBER OF FLOPS:         2.109e+03

     CHECK POINT  START OF SOLVER     

     CHECK POINT  END OF SOLVER       

       ELAPSED USER TIME (SEC)      =   0.0000    
       ELAPSED SYSTEM TIME (SEC)    =   0.0000    
       ELAPSED TOTAL CPU TIME (SEC) =   0.0000    
       ELAPSED WALLCLOCK TIME (SEC) =            0

               CONVERGENCE CHECKS FOR EQUILIBRIUM ITERATION     1


 AVERAGE FORCE                      1.489E-02   TIME AVG. FORCE       9.924E-03
 LARGEST SCALED RESIDUAL FORCE      7.772E-18   AT NODE          1   DOF  3
  CORRESPONDING RESIDUAL FORCE      7.772E-18
 LARGEST INCREMENT OF DISP.         1.000E-06   AT NODE          1   DOF  1
 LARGEST CORRECTION TO DISP.        1.592E-11   AT NODE          1   DOF  3
          THE FORCE     EQUILIBRIUM RESPONSE WAS LINEAR IN THIS INCREMENT
          TIME INCREMENT MAY NOW INCREASE TO    1.500E-05

 ITERATION SUMMARY FOR THE INCREMENT:   1 TOTAL ITERATIONS, OF WHICH
   0 ARE SEVERE DISCONTINUITY ITERATIONS AND  1 ARE EQUILIBRIUM ITERATIONS.

 TIME INCREMENT COMPLETED  1.000E-05,  FRACTION OF STEP COMPLETED  2.000E-05
 STEP TIME COMPLETED       2.000E-05,  TOTAL TIME COMPLETED        2.000E-05


  INCREMENT     3 STARTS. ATTEMPT NUMBER  1, TIME INCREMENT  1.500E-05
 
	SYMMETRIC DIRECT SPARSE SOLVER RUNNING ON
 	1 HOST:        1 MPI RANK  x 1 THREAD
 	NUMBER OF EQUATIONS:     18
 	NUMBER OF RHS:           1
 	NUMBER OF FLOPS:         2.109e+03

     CHECK POINT  START OF SOLVER     

     CHECK POINT  END OF SOLVER       

       ELAPSED USER TIME (SEC)      =   0.0000    
       ELAPSED SYSTEM TIME (SEC)    =   0.0000    
       ELAPSED TOTAL CPU TIME (SEC) =   0.0000    
       ELAPSED WALLCLOCK TIME (SEC) =            0

               CONVERGENCE CHECKS FOR EQUILIBRIUM ITERATION     1


 AVERAGE FORCE                      2.605E-02   TIME AVG. FORCE       1.530E-02
 LARGEST SCALED RESIDUAL FORCE      4.022E-17   AT NODE          1   DOF  3
  CORRESPONDING RESIDUAL FORCE      4.022E-17
 LARGEST INCREMENT OF DISP.         1.500E-06   AT NODE          1   DOF  1
 LARGEST CORRECTION TO DISP.        2.985E-11   AT NODE          5   DOF  3
          THE FORCE     EQUILIBRIUM RESPONSE WAS LINEAR IN THIS INCREMENT
          TIME INCREMENT MAY NOW INCREASE TO    2.250E-05

 ITERATION SUMMARY FOR THE INCREMENT:   1 TOTAL ITERATIONS, OF WHICH
   0 ARE SEVERE DISCONTINUITY ITERATIONS AND  1 ARE EQUILIBRIUM ITERATIONS.

 TIME INCREMENT COMPLETED  1.500E-05,  FRACTION OF STEP COMPLETED  3.500E-05
 STEP TIME COMPLETED       3.500E-05,  TOTAL TIME COMPLETED        3.500E-05


  INCREMENT     4 STARTS. ATTEMPT NUMBER  1, TIME INCREMENT  2.250E-05
 
	SYMMETRIC DIRECT SPARSE SOLVER RUNNING ON
 	1 HOST:        1 MPI RANK  x 1 THREAD
 	NUMBER OF EQUATIONS:     18
 	NUMBER OF RHS:           1
 	NUMBER OF FLOPS:         2.109e+03

     CHECK POINT  START OF SOLVER     

     CHECK POINT  END OF SOLVER       

       ELAPSED USER TIME (SEC)      =   0.0000    
       ELAPSED SYSTEM TIME (SEC)    =   0.0000    
       ELAPSED TOTAL CPU TIME (SEC) =   0.0000    
       ELAPSED WALLCLOCK TIME (SEC) =            0

               CONVERGENCE CHECKS FOR EQUILIBRIUM ITERATION     1


 AVERAGE FORCE                      4.280E-02   TIME AVG. FORCE       2.217E-02
 LARGEST SCALED RESIDUAL FORCE      1.988E-16   AT NODE          1   DOF  3
  CORRESPONDING RESIDUAL FORCE      1.988E-16
 LARGEST INCREMENT OF DISP.         2.250E-06   AT NODE          1   DOF  1
 LARGEST CORRECTION TO DISP.        6.715E-11   AT NODE          2   DOF  3
          THE FORCE     EQUILIBRIUM RESPONSE WAS LINEAR IN THIS INCREMENT
          TIME INCREMENT MAY NOW INCREASE TO    3.375E-05

 ITERATION SUMMARY FOR THE INCREMENT:   1 TOTAL ITERATIONS, OF WHICH
   0 ARE SEVERE DISCONTINUITY ITERATIONS AND  1 ARE EQUILIBRIUM ITERATIONS.

 TIME INCREMENT COMPLETED  2.250E-05,  FRACTION OF STEP COMPLETED  5.750E-05
 STEP TIME COMPLETED       5.750E-05,  TOTAL TIME COMPLETED        5.750E-05


  INCREMENT     5 STARTS. ATTEMPT NUMBER  1, TIME INCREMENT  3.375E-05
 
	SYMMETRIC DIRECT SPARSE SOLVER RUNNING ON
 	1 HOST:        1 MPI RANK  x 1 THREAD
 	NUMBER OF EQUATIONS:     18
 	NUMBER OF RHS:           1
 	NUMBER OF FLOPS:         2.109e+03

     CHECK POINT  START OF SOLVER     

     CHECK POINT  END OF SOLVER       

       ELAPSED USER TIME (SEC)      =   0.0000    
       ELAPSED SYSTEM TIME (SEC)    =   0.0000    
       ELAPSED TOTAL CPU TIME (SEC) =   0.0000    
       ELAPSED WALLCLOCK TIME (SEC) =            0

               CONVERGENCE CHECKS FOR EQUILIBRIUM ITERATION     1


 AVERAGE FORCE                      6.792E-02   TIME AVG. FORCE       3.132E-02
 LARGEST SCALED RESIDUAL FORCE      1.037E-15   AT NODE          1   DOF  3
  CORRESPONDING RESIDUAL FORCE      1.037E-15
 LARGEST INCREMENT OF DISP.         3.375E-06   AT NODE          1   DOF  1
 LARGEST CORRECTION TO DISP.        1.511E-10   AT NODE          2   DOF  3
          THE FORCE     EQUILIBRIUM RESPONSE WAS LINEAR IN THIS INCREMENT
          TIME INCREMENT MAY NOW INCREASE TO    5.063E-05

 ITERATION SUMMARY FOR THE INCREMENT:   1 TOTAL ITERATIONS, OF WHICH
   0 ARE SEVERE DISCONTINUITY ITERATIONS AND  1 ARE EQUILIBRIUM ITERATIONS.

 TIME INCREMENT COMPLETED  3.375E-05,  FRACTION OF STEP COMPLETED  9.125E-05
 STEP TIME COMPLETED       9.125E-05,  TOTAL TIME COMPLETED        9.125E-05


  INCREMENT     6 STARTS. ATTEMPT NUMBER  1, TIME INCREMENT  5.063E-05
 
	SYMMETRIC DIRECT SPARSE SOLVER RUNNING ON
 	1 HOST:        1 MPI RANK  x 1 THREAD
 	NUMBER OF EQUATIONS:     18
 	NUMBER OF RHS:           1
 	NUMBER OF FLOPS:         2.109e+03

     CHECK POINT  START OF SOLVER     

     CHECK POINT  END OF SOLVER       

       ELAPSED USER TIME (SEC)      =   0.0000    
       ELAPSED SYSTEM TIME (SEC)    =   0.0000    
       ELAPSED TOTAL CPU TIME (SEC) =   0.0000    
       ELAPSED WALLCLOCK TIME (SEC) =            0

               CONVERGENCE CHECKS FOR EQUILIBRIUM ITERATION     1


 AVERAGE FORCE                      0.106       TIME AVG. FORCE       4.370E-02
 LARGEST SCALED RESIDUAL FORCE      5.157E-15   AT NODE          1   DOF  3
  CORRESPONDING RESIDUAL FORCE      5.157E-15
 LARGEST INCREMENT OF DISP.         5.062E-06   AT NODE          1   DOF  1
 LARGEST CORRECTION TO DISP.        3.399E-10   AT NODE          6   DOF  3
          THE FORCE     EQUILIBRIUM RESPONSE WAS LINEAR IN THIS INCREMENT
          TIME INCREMENT MAY NOW INCREASE TO    7.594E-05

 ITERATION SUMMARY FOR THE INCREMENT:   1 TOTAL ITERATIONS, OF WHICH
   0 ARE SEVERE DISCONTINUITY ITERATIONS AND  1 ARE EQUILIBRIUM ITERATIONS.

 TIME INCREMENT COMPLETED  5.063E-05,  FRACTION OF STEP COMPLETED  1.419E-04
 STEP TIME COMPLETED       1.419E-04,  TOTAL TIME COMPLETED        1.419E-04


  INCREMENT     7 STARTS. ATTEMPT NUMBER  1, TIME INCREMENT  7.594E-05
 
	SYMMETRIC DIRECT SPARSE SOLVER RUNNING ON
 	1 HOST:        1 MPI RANK  x 1 THREAD
 	NUMBER OF EQUATIONS:     18
 	NUMBER OF RHS:           1
 	NUMBER OF FLOPS:         2.109e+03

     CHECK POINT  START OF SOLVER     

     CHECK POINT  END OF SOLVER       

       ELAPSED USER TIME (SEC)      =   0.0000    
       ELAPSED SYSTEM TIME (SEC)    =   0.0000    
       ELAPSED TOTAL CPU TIME (SEC) =   0.0000    
       ELAPSED WALLCLOCK TIME (SEC) =            0

               CONVERGENCE CHECKS FOR EQUILIBRIUM ITERATION     1


 AVERAGE FORCE                      0.162       TIME AVG. FORCE       6.062E-02
 LARGEST SCALED RESIDUAL FORCE      2.617E-14   AT NODE          1   DOF  3
  CORRESPONDING RESIDUAL FORCE      2.617E-14
 LARGEST INCREMENT OF DISP.         7.594E-06   AT NODE          1   DOF  1
 LARGEST CORRECTION TO DISP.        7.646E-10   AT NODE          5   DOF  3
          THE FORCE     EQUILIBRIUM RESPONSE WAS LINEAR IN THIS INCREMENT
          TIME INCREMENT MAY NOW INCREASE TO    1.139E-04

 ITERATION SUMMARY FOR THE INCREMENT:   1 TOTAL ITERATIONS, OF WHICH
   0 ARE SEVERE DISCONTINUITY ITERATIONS AND  1 ARE EQUILIBRIUM ITERATIONS.

 TIME INCREMENT COMPLETED  7.594E-05,  FRACTION OF STEP COMPLETED  2.178E-04
 STEP TIME COMPLETED       2.178E-04,  TOTAL TIME COMPLETED        2.178E-04


  INCREMENT     8 STARTS. ATTEMPT NUMBER  1, TIME INCREMENT  1.139E-04
 
	SYMMETRIC DIRECT SPARSE SOLVER RUNNING ON
 	1 HOST:        1 MPI RANK  x 1 THREAD
 	NUMBER OF EQUATIONS:     18
 	NUMBER OF RHS:           1
 	NUMBER OF FLOPS:         2.109e+03

     CHECK POINT  START OF SOLVER     

     CHECK POINT  END OF SOLVER       

       ELAPSED USER TIME (SEC)      =   0.0000    
       ELAPSED SYSTEM TIME (SEC)    =   0.0000    
       ELAPSED TOTAL CPU TIME (SEC) =   0.0000    
       ELAPSED WALLCLOCK TIME (SEC) =            0

               CONVERGENCE CHECKS FOR EQUILIBRIUM ITERATION     1


 AVERAGE FORCE                      0.247       TIME AVG. FORCE       8.390E-02
 LARGEST SCALED RESIDUAL FORCE      1.326E-13   AT NODE          1   DOF  3
  CORRESPONDING RESIDUAL FORCE      1.326E-13
 LARGEST INCREMENT OF DISP.         1.139E-05   AT NODE          1   DOF  1
 LARGEST CORRECTION TO DISP.        1.720E-09   AT NODE          6   DOF  3
          THE FORCE     EQUILIBRIUM RESPONSE WAS LINEAR IN THIS INCREMENT
          TIME INCREMENT MAY NOW INCREASE TO    1.709E-04

 ITERATION SUMMARY FOR THE INCREMENT:   1 TOTAL ITERATIONS, OF WHICH
   0 ARE SEVERE DISCONTINUITY ITERATIONS AND  1 ARE EQUILIBRIUM ITERATIONS.

 TIME INCREMENT COMPLETED  1.139E-04,  FRACTION OF STEP COMPLETED  3.317E-04
 STEP TIME COMPLETED       3.317E-04,  TOTAL TIME COMPLETED        3.317E-04


  INCREMENT     9 STARTS. ATTEMPT NUMBER  1, TIME INCREMENT  1.709E-04
 
	SYMMETRIC DIRECT SPARSE SOLVER RUNNING ON
 	1 HOST:        1 MPI RANK  x 1 THREAD
 	NUMBER OF EQUATIONS:     18
 	NUMBER OF RHS:           1
 	NUMBER OF FLOPS:         2.109e+03

     CHECK POINT  START OF SOLVER     

     CHECK POINT  END OF SOLVER       

       ELAPSED USER TIME (SEC)      =   0.0000    
       ELAPSED SYSTEM TIME (SEC)    =   0.0000    
       ELAPSED TOTAL CPU TIME (SEC) =   0.0000    
       ELAPSED WALLCLOCK TIME (SEC) =            0

               CONVERGENCE CHECKS FOR EQUILIBRIUM ITERATION     1


 AVERAGE FORCE                      0.374       TIME AVG. FORCE       0.116    
 LARGEST SCALED RESIDUAL FORCE      6.714E-13   AT NODE          1   DOF  3
  CORRESPONDING RESIDUAL FORCE      6.714E-13
 LARGEST INCREMENT OF DISP.         1.709E-05   AT NODE          1   DOF  1
 LARGEST CORRECTION TO DISP.        3.869E-09   AT NODE          2   DOF  3
          THE FORCE     EQUILIBRIUM RESPONSE WAS LINEAR IN THIS INCREMENT
          TIME INCREMENT MAY NOW INCREASE TO    2.563E-04

 ITERATION SUMMARY FOR THE INCREMENT:   1 TOTAL ITERATIONS, OF WHICH
   0 ARE SEVERE DISCONTINUITY ITERATIONS AND  1 ARE EQUILIBRIUM ITERATIONS.

 TIME INCREMENT COMPLETED  1.709E-04,  FRACTION OF STEP COMPLETED  5.026E-04
 STEP TIME COMPLETED       5.026E-04,  TOTAL TIME COMPLETED        5.026E-04


  INCREMENT    10 STARTS. ATTEMPT NUMBER  1, TIME INCREMENT  2.563E-04
 
	SYMMETRIC DIRECT SPARSE SOLVER RUNNING ON
 	1 HOST:        1 MPI RANK  x 1 THREAD
 	NUMBER OF EQUATIONS:     18
 	NUMBER OF RHS:           1
 	NUMBER OF FLOPS:         2.109e+03

     CHECK POINT  START OF SOLVER     

     CHECK POINT  END OF SOLVER       

       ELAPSED USER TIME (SEC)      =   0.0000    
       ELAPSED SYSTEM TIME (SEC)    =   0.0000    
       ELAPSED TOTAL CPU TIME (SEC) =   0.0000    
       ELAPSED WALLCLOCK TIME (SEC) =            0

               CONVERGENCE CHECKS FOR EQUILIBRIUM ITERATION     1


 AVERAGE FORCE                      0.565       TIME AVG. FORCE       0.161    
 LARGEST SCALED RESIDUAL FORCE      3.399E-12   AT NODE          1   DOF  3
  CORRESPONDING RESIDUAL FORCE      3.399E-12
 LARGEST INCREMENT OF DISP.         2.563E-05   AT NODE          1   DOF  1
 LARGEST CORRECTION TO DISP.        8.700E-09   AT NODE          1   DOF  3
          THE FORCE     EQUILIBRIUM RESPONSE WAS LINEAR IN THIS INCREMENT
          TIME INCREMENT MAY NOW INCREASE TO    3.844E-04

 ITERATION SUMMARY FOR THE INCREMENT:   1 TOTAL ITERATIONS, OF WHICH
   0 ARE SEVERE DISCONTINUITY ITERATIONS AND  1 ARE EQUILIBRIUM ITERATIONS.

 TIME INCREMENT COMPLETED  2.563E-04,  FRACTION OF STEP COMPLETED  7.589E-04
 STEP TIME COMPLETED       7.589E-04,  TOTAL TIME COMPLETED        7.589E-04


  INCREMENT    11 STARTS. ATTEMPT NUMBER  1, TIME INCREMENT  3.844E-04
 
	SYMMETRIC DIRECT SPARSE SOLVER RUNNING ON
 	1 HOST:        1 MPI RANK  x 1 THREAD
 	NUMBER OF EQUATIONS:     18
 	NUMBER OF RHS:           1
 	NUMBER OF FLOPS:         2.109e+03

     CHECK POINT  START OF SOLVER     

     CHECK POINT  END OF SOLVER       

       ELAPSED USER TIME (SEC)      =   0.0000    
       ELAPSED SYSTEM TIME (SEC)    =   0.0000    
       ELAPSED TOTAL CPU TIME (SEC) =   0.0000    
       ELAPSED WALLCLOCK TIME (SEC) =            0

               CONVERGENCE CHECKS FOR EQUILIBRIUM ITERATION     1


 AVERAGE FORCE                      0.851       TIME AVG. FORCE       0.224    
 LARGEST SCALED RESIDUAL FORCE      1.721E-11   AT NODE          1   DOF  3
  CORRESPONDING RESIDUAL FORCE      1.721E-11
 LARGEST INCREMENT OF DISP.         3.844E-05   AT NODE          1   DOF  1
 LARGEST CORRECTION TO DISP.        1.956E-08   AT NODE          2   DOF  3
          THE FORCE     EQUILIBRIUM RESPONSE WAS LINEAR IN THIS INCREMENT
          TIME INCREMENT MAY NOW INCREASE TO    5.767E-04

 ITERATION SUMMARY FOR THE INCREMENT:   1 TOTAL ITERATIONS, OF WHICH
   0 ARE SEVERE DISCONTINUITY ITERATIONS AND  1 ARE EQUILIBRIUM ITERATIONS.

 TIME INCREMENT COMPLETED  3.844E-04,  FRACTION OF STEP COMPLETED  1.143E-03
 STEP TIME COMPLETED       1.143E-03,  TOTAL TIME COMPLETED        1.143E-03


  INCREMENT    12 STARTS. ATTEMPT NUMBER  1, TIME INCREMENT  5.767E-04
 
	SYMMETRIC DIRECT SPARSE SOLVER RUNNING ON
 	1 HOST:        1 MPI RANK  x 1 THREAD
 	NUMBER OF EQUATIONS:     18
 	NUMBER OF RHS:           1
 	NUMBER OF FLOPS:         2.109e+03

     CHECK POINT  START OF SOLVER     

     CHECK POINT  END OF SOLVER       

       ELAPSED USER TIME (SEC)      =   0.0000    
       ELAPSED SYSTEM TIME (SEC)    =   0.0000    
       ELAPSED TOTAL CPU TIME (SEC) =   0.0000    
       ELAPSED WALLCLOCK TIME (SEC) =            0

               CONVERGENCE CHECKS FOR EQUILIBRIUM ITERATION     1


 AVERAGE FORCE                      0.566       TIME AVG. FORCE       0.252    
 LARGEST SCALED RESIDUAL FORCE      0.222       AT NODE          5   DOF  3
  CORRESPONDING RESIDUAL FORCE      0.222    
 LARGEST INCREMENT OF DISP.        -1.546E-04   AT NODE          5   DOF  3
 LARGEST CORRECTION TO DISP.       -1.053E-04   AT NODE          5   DOF  3
          FORCE     EQUILIBRIUM NOT ACHIEVED WITHIN TOLERANCE.
 
	SYMMETRIC DIRECT SPARSE SOLVER RUNNING ON
 	1 HOST:        1 MPI RANK  x 1 THREAD
 	NUMBER OF EQUATIONS:     18
 	NUMBER OF RHS:           1
 	NUMBER OF FLOPS:         2.109e+03

     CHECK POINT  START OF SOLVER     

     CHECK POINT  END OF SOLVER       

       ELAPSED USER TIME (SEC)      =  0.10000    
       ELAPSED SYSTEM TIME (SEC)    =   0.0000    
       ELAPSED TOTAL CPU TIME (SEC) =  0.10000    
       ELAPSED WALLCLOCK TIME (SEC) =            0

               CONVERGENCE CHECKS FOR EQUILIBRIUM ITERATION     2


 AVERAGE FORCE                      0.904       TIME AVG. FORCE       0.280    
 LARGEST SCALED RESIDUAL FORCE     -0.334       AT NODE          5   DOF  3
  CORRESPONDING RESIDUAL FORCE     -0.334    
 LARGEST INCREMENT OF DISP.         5.767E-05   AT NODE          1   DOF  1
 LARGEST CORRECTION TO DISP.        1.315E-04   AT NODE          5   DOF  3
          FORCE     EQUILIBRIUM NOT ACHIEVED WITHIN TOLERANCE.
 
	SYMMETRIC DIRECT SPARSE SOLVER RUNNING ON
 	1 HOST:        1 MPI RANK  x 1 THREAD
 	NUMBER OF EQUATIONS:     18
 	NUMBER OF RHS:           1
 	NUMBER OF FLOPS:         2.109e+03

     CHECK POINT  START OF SOLVER     

     CHECK POINT  END OF SOLVER       

       ELAPSED USER TIME (SEC)      =   0.0000    
       ELAPSED SYSTEM TIME (SEC)    =   0.0000    
       ELAPSED TOTAL CPU TIME (SEC) =   0.0000    
       ELAPSED WALLCLOCK TIME (SEC) =            0

               CONVERGENCE CHECKS FOR EQUILIBRIUM ITERATION     3


 AVERAGE FORCE                      0.561       TIME AVG. FORCE       0.252    
 LARGEST SCALED RESIDUAL FORCE      0.231       AT NODE          5   DOF  3
  CORRESPONDING RESIDUAL FORCE      0.231    
 LARGEST INCREMENT OF DISP.        -1.563E-04   AT NODE          5   DOF  3
 LARGEST CORRECTION TO DISP.       -1.332E-04   AT NODE          5   DOF  3
          FORCE     EQUILIBRIUM NOT ACHIEVED WITHIN TOLERANCE.
 
	SYMMETRIC DIRECT SPARSE SOLVER RUNNING ON
 	1 HOST:        1 MPI RANK  x 1 THREAD
 	NUMBER OF EQUATIONS:     18
 	NUMBER OF RHS:           1
 	NUMBER OF FLOPS:         2.109e+03

     CHECK POINT  START OF SOLVER     

     CHECK POINT  END OF SOLVER       

       ELAPSED USER TIME (SEC)      =   0.0000    
       ELAPSED SYSTEM TIME (SEC)    =   0.0000    
       ELAPSED TOTAL CPU TIME (SEC) =   0.0000    
       ELAPSED WALLCLOCK TIME (SEC) =            0

               CONVERGENCE CHECKS FOR EQUILIBRIUM ITERATION     4


 AVERAGE FORCE                      0.926       TIME AVG. FORCE       0.282    
 LARGEST SCALED RESIDUAL FORCE     -0.361       AT NODE          5   DOF  3
  CORRESPONDING RESIDUAL FORCE     -0.361    
 LARGEST INCREMENT OF DISP.         5.767E-05   AT NODE          1   DOF  1
 LARGEST CORRECTION TO DISP.        1.393E-04   AT NODE          5   DOF  3
          FORCE     EQUILIBRIUM NOT ACHIEVED WITHIN TOLERANCE.
 

 ***NOTE: THE SOLUTION APPEARS TO BE DIVERGING. CONVERGENCE IS JUDGED UNLIKELY.


  INCREMENT    12 STARTS. ATTEMPT NUMBER  2, TIME INCREMENT  1.442E-04
 
	SYMMETRIC DIRECT SPARSE SOLVER RUNNING ON
 	1 HOST:        1 MPI RANK  x 1 THREAD
 	NUMBER OF EQUATIONS:     18
 	NUMBER OF RHS:           1
 	NUMBER OF FLOPS:         2.109e+03

     CHECK POINT  START OF SOLVER     

     CHECK POINT  END OF SOLVER       

       ELAPSED USER TIME (SEC)      =   0.0000    
       ELAPSED SYSTEM TIME (SEC)    =   0.0000    
       ELAPSED TOTAL CPU TIME (SEC) =   0.0000    
       ELAPSED WALLCLOCK TIME (SEC) =            0

               CONVERGENCE CHECKS FOR EQUILIBRIUM ITERATION     1


 AVERAGE FORCE                      0.614       TIME AVG. FORCE       0.256    
 LARGEST SCALED RESIDUAL FORCE      3.146E-03   AT NODE          5   DOF  3
  CORRESPONDING RESIDUAL FORCE      3.146E-03
 LARGEST INCREMENT OF DISP.        -1.846E-05   AT NODE          5   DOF  3
 LARGEST CORRECTION TO DISP.       -6.123E-06   AT NODE          5   DOF  3
          FORCE     EQUILIBRIUM NOT ACHIEVED WITHIN TOLERANCE.
 
	SYMMETRIC DIRECT SPARSE SOLVER RUNNING ON
 	1 HOST:        1 MPI RANK  x 1 THREAD
 	NUMBER OF EQUATIONS:     18
 	NUMBER OF RHS:           1
 	NUMBER OF FLOPS:         2.109e+03

     CHECK POINT  START OF SOLVER     

     CHECK POINT  END OF SOLVER       

       ELAPSED USER TIME (SEC)      =   0.0000    
       ELAPSED SYSTEM TIME (SEC)    =   0.0000    
       ELAPSED TOTAL CPU TIME (SEC) =   0.0000    
       ELAPSED WALLCLOCK TIME (SEC) =            0

               CONVERGENCE CHECKS FOR EQUILIBRIUM ITERATION     2


 AVERAGE FORCE                      0.616       TIME AVG. FORCE       0.256    
 LARGEST SCALED RESIDUAL FORCE     -5.566E-04   AT NODE          5   DOF  3
  CORRESPONDING RESIDUAL FORCE     -5.566E-04
 LARGEST INCREMENT OF DISP.        -1.765E-05   AT NODE          2   DOF  3
 LARGEST CORRECTION TO DISP.        8.586E-07   AT NODE          5   DOF  3
 ESTIMATE OF DISP.    CORRECTION   -1.519E-07
 FORCE     EQUILIB. ACCEPTED BASED ON SMALL RESIDUAL AND ESTIMATED CORRECTION
          TIME INCREMENT MAY NOW INCREASE TO    2.162E-04

 ITERATION SUMMARY FOR THE INCREMENT:   2 TOTAL ITERATIONS, OF WHICH
   0 ARE SEVERE DISCONTINUITY ITERATIONS AND  2 ARE EQUILIBRIUM ITERATIONS.

 TIME INCREMENT COMPLETED  1.442E-04,  FRACTION OF STEP COMPLETED  1.287E-03
 STEP TIME COMPLETED       1.287E-03,  TOTAL TIME COMPLETED        1.287E-03


  INCREMENT    13 STARTS. ATTEMPT NUMBER  1, TIME INCREMENT  2.162E-04
 
	SYMMETRIC DIRECT SPARSE SOLVER RUNNING ON
 	1 HOST:        1 MPI RANK  x 1 THREAD
 	NUMBER OF EQUATIONS:     18
 	NUMBER OF RHS:           1
 	NUMBER OF FLOPS:         2.109e+03

     CHECK POINT  START OF SOLVER     

     CHECK POINT  END OF SOLVER       

       ELAPSED USER TIME (SEC)      =   0.0000    
       ELAPSED SYSTEM TIME (SEC)    =   0.0000    
       ELAPSED TOTAL CPU TIME (SEC) =   0.0000    
       ELAPSED WALLCLOCK TIME (SEC) =            0

               CONVERGENCE CHECKS FOR EQUILIBRIUM ITERATION     1


 AVERAGE FORCE                      0.610       TIME AVG. FORCE       0.284    
 LARGEST SCALED RESIDUAL FORCE      4.020E-02   AT NODE          5   DOF  3
  CORRESPONDING RESIDUAL FORCE      4.020E-02
 LARGEST INCREMENT OF DISP.        -5.353E-05   AT NODE          5   DOF  3
 LARGEST CORRECTION TO DISP.       -2.713E-05   AT NODE          5   DOF  3
          FORCE     EQUILIBRIUM NOT ACHIEVED WITHIN TOLERANCE.
 
	SYMMETRIC DIRECT SPARSE SOLVER RUNNING ON
 	1 HOST:        1 MPI RANK  x 1 THREAD
 	NUMBER OF EQUATIONS:     18
 	NUMBER OF RHS:           1
 	NUMBER OF FLOPS:         2.109e+03

     CHECK POINT  START OF SOLVER     

     CHECK POINT  END OF SOLVER       

       ELAPSED USER TIME (SEC)      =   0.0000    
       ELAPSED SYSTEM TIME (SEC)    =   0.0000    
       ELAPSED TOTAL CPU TIME (SEC) =   0.0000    
       ELAPSED WALLCLOCK TIME (SEC) =            0

               CONVERGENCE CHECKS FOR EQUILIBRIUM ITERATION     2


 AVERAGE FORCE                      0.645       TIME AVG. FORCE       0.286    
 LARGEST SCALED RESIDUAL FORCE     -2.975E-02   AT NODE          5   DOF  3
  CORRESPONDING RESIDUAL FORCE     -2.975E-02
 LARGEST INCREMENT OF DISP.        -3.912E-05   AT NODE          2   DOF  3
 LARGEST CORRECTION TO DISP.        1.988E-05   AT NODE          5   DOF  3
          FORCE     EQUILIBRIUM NOT ACHIEVED WITHIN TOLERANCE.
 
	SYMMETRIC DIRECT SPARSE SOLVER RUNNING ON
 	1 HOST:        1 MPI RANK  x 1 THREAD
 	NUMBER OF EQUATIONS:     18
 	NUMBER OF RHS:           1
 	NUMBER OF FLOPS:         2.109e+03

     CHECK POINT  START OF SOLVER     

     CHECK POINT  END OF SOLVER       

       ELAPSED USER TIME (SEC)      =   0.0000    
       ELAPSED SYSTEM TIME (SEC)    =   0.0000    
       ELAPSED TOTAL CPU TIME (SEC) =   0.0000    
       ELAPSED WALLCLOCK TIME (SEC) =            0

               CONVERGENCE CHECKS FOR EQUILIBRIUM ITERATION     3


 AVERAGE FORCE                      0.616       TIME AVG. FORCE       0.284    
 LARGEST SCALED RESIDUAL FORCE      1.763E-02   AT NODE          5   DOF  3
  CORRESPONDING RESIDUAL FORCE      1.763E-02
 LARGEST INCREMENT OF DISP.        -4.700E-05   AT NODE          5   DOF  3
 LARGEST CORRECTION TO DISP.       -1.334E-05   AT NODE          5   DOF  3
          FORCE     EQUILIBRIUM NOT ACHIEVED WITHIN TOLERANCE.
 
	SYMMETRIC DIRECT SPARSE SOLVER RUNNING ON
 	1 HOST:        1 MPI RANK  x 1 THREAD
 	NUMBER OF EQUATIONS:     18
 	NUMBER OF RHS:           1
 	NUMBER OF FLOPS:         2.109e+03

     CHECK POINT  START OF SOLVER     

     CHECK POINT  END OF SOLVER       

       ELAPSED USER TIME (SEC)      =   0.0000    
       ELAPSED SYSTEM TIME (SEC)    =   0.0000    
       ELAPSED TOTAL CPU TIME (SEC) =   0.0000    
       ELAPSED WALLCLOCK TIME (SEC) =            0

               CONVERGENCE CHECKS FOR EQUILIBRIUM ITERATION     4


 AVERAGE FORCE                      0.630       TIME AVG. FORCE       0.285    
 LARGEST SCALED RESIDUAL FORCE     -1.234E-02   AT NODE          5   DOF  3
  CORRESPONDING RESIDUAL FORCE     -1.234E-02
 LARGEST INCREMENT OF DISP.        -4.075E-05   AT NODE          2   DOF  3
 LARGEST CORRECTION TO DISP.        8.418E-06   AT NODE          5   DOF  3
          FORCE     EQUILIBRIUM NOT ACHIEVED WITHIN TOLERANCE.
 
	SYMMETRIC DIRECT SPARSE SOLVER RUNNING ON
 	1 HOST:        1 MPI RANK  x 1 THREAD
 	NUMBER OF EQUATIONS:     18
 	NUMBER OF RHS:           1
 	NUMBER OF FLOPS:         2.109e+03

     CHECK POINT  START OF SOLVER     

     CHECK POINT  END OF SOLVER       

       ELAPSED USER TIME (SEC)      =   0.0000    
       ELAPSED SYSTEM TIME (SEC)    =   0.0000    
       ELAPSED TOTAL CPU TIME (SEC) =   0.0000    
       ELAPSED WALLCLOCK TIME (SEC) =            0

               CONVERGENCE CHECKS FOR EQUILIBRIUM ITERATION     5


 AVERAGE FORCE                      0.618       TIME AVG. FORCE       0.284    
 LARGEST SCALED RESIDUAL FORCE      7.792E-03   AT NODE          5   DOF  3
  CORRESPONDING RESIDUAL FORCE      7.792E-03
 LARGEST INCREMENT OF DISP.        -4.425E-05   AT NODE          5   DOF  3
 LARGEST CORRECTION TO DISP.       -5.672E-06   AT NODE          5   DOF  3
          FORCE     EQUILIBRIUM NOT ACHIEVED WITHIN TOLERANCE.
 
	SYMMETRIC DIRECT SPARSE SOLVER RUNNING ON
 	1 HOST:        1 MPI RANK  x 1 THREAD
 	NUMBER OF EQUATIONS:     18
 	NUMBER OF RHS:           1
 	NUMBER OF FLOPS:         2.109e+03

     CHECK POINT  START OF SOLVER     

     CHECK POINT  END OF SOLVER       

       ELAPSED USER TIME (SEC)      =   0.0000    
       ELAPSED SYSTEM TIME (SEC)    =   0.0000    
       ELAPSED TOTAL CPU TIME (SEC) =   0.0000    
       ELAPSED WALLCLOCK TIME (SEC) =            0

               CONVERGENCE CHECKS FOR EQUILIBRIUM ITERATION     6


 AVERAGE FORCE                      0.625       TIME AVG. FORCE       0.285    
 LARGEST SCALED RESIDUAL FORCE     -5.276E-03   AT NODE          5   DOF  3
  CORRESPONDING RESIDUAL FORCE     -5.276E-03
 LARGEST INCREMENT OF DISP.        -4.143E-05   AT NODE          2   DOF  3
 LARGEST CORRECTION TO DISP.        3.676E-06   AT NODE          5   DOF  3
          FORCE     EQUILIBRIUM NOT ACHIEVED WITHIN TOLERANCE.
 
	SYMMETRIC DIRECT SPARSE SOLVER RUNNING ON
 	1 HOST:        1 MPI RANK  x 1 THREAD
 	NUMBER OF EQUATIONS:     18
 	NUMBER OF RHS:           1
 	NUMBER OF FLOPS:         2.109e+03

     CHECK POINT  START OF SOLVER     

     CHECK POINT  END OF SOLVER       

       ELAPSED USER TIME (SEC)      =   0.0000    
       ELAPSED SYSTEM TIME (SEC)    =   0.0000    
       ELAPSED TOTAL CPU TIME (SEC) =   0.0000    
       ELAPSED WALLCLOCK TIME (SEC) =            0

               CONVERGENCE CHECKS FOR EQUILIBRIUM ITERATION     7


 AVERAGE FORCE                      0.619       TIME AVG. FORCE       0.284    
 LARGEST SCALED RESIDUAL FORCE      3.415E-03   AT NODE          5   DOF  3
  CORRESPONDING RESIDUAL FORCE      3.415E-03
 LARGEST INCREMENT OF DISP.        -4.302E-05   AT NODE          5   DOF  3
 LARGEST CORRECTION TO DISP.       -2.448E-06   AT NODE          5   DOF  3
          FORCE     EQUILIBRIUM NOT ACHIEVED WITHIN TOLERANCE.
 
	SYMMETRIC DIRECT SPARSE SOLVER RUNNING ON
 	1 HOST:        1 MPI RANK  x 1 THREAD
 	NUMBER OF EQUATIONS:     18
 	NUMBER OF RHS:           1
 	NUMBER OF FLOPS:         2.109e+03

     CHECK POINT  START OF SOLVER     

     CHECK POINT  END OF SOLVER       

       ELAPSED USER TIME (SEC)      =   0.0000    
       ELAPSED SYSTEM TIME (SEC)    =   0.0000    
       ELAPSED TOTAL CPU TIME (SEC) =   0.0000    
       ELAPSED WALLCLOCK TIME (SEC) =            0

               CONVERGENCE CHECKS FOR EQUILIBRIUM ITERATION     8


 AVERAGE FORCE                      0.622       TIME AVG. FORCE       0.284    
 LARGEST SCALED RESIDUAL FORCE     -2.278E-03   AT NODE          5   DOF  3
  CORRESPONDING RESIDUAL FORCE     -2.278E-03
 LARGEST INCREMENT OF DISP.        -4.173E-05   AT NODE          2   DOF  3
 LARGEST CORRECTION TO DISP.        1.602E-06   AT NODE          5   DOF  3
          FORCE     EQUILIBRIUM NOT ACHIEVED WITHIN TOLERANCE.
 
	SYMMETRIC DIRECT SPARSE SOLVER RUNNING ON
 	1 HOST:        1 MPI RANK  x 1 THREAD
 	NUMBER OF EQUATIONS:     18
 	NUMBER OF RHS:           1
 	NUMBER OF FLOPS:         2.109e+03

     CHECK POINT  START OF SOLVER     

     CHECK POINT  END OF SOLVER       

       ELAPSED USER TIME (SEC)      =   0.0000    
       ELAPSED SYSTEM TIME (SEC)    =  0.10000    
       ELAPSED TOTAL CPU TIME (SEC) =  0.10000    
       ELAPSED WALLCLOCK TIME (SEC) =            0

               CONVERGENCE CHECKS FOR EQUILIBRIUM ITERATION     9


 AVERAGE FORCE                      0.620       TIME AVG. FORCE       0.284    
 LARGEST SCALED RESIDUAL FORCE      1.490E-03   AT NODE          5   DOF  3
  CORRESPONDING RESIDUAL FORCE      1.490E-03
 LARGEST INCREMENT OF DISP.        -4.248E-05   AT NODE          5   DOF  3
 LARGEST CORRECTION TO DISP.       -1.061E-06   AT NODE          5   DOF  3
          FORCE     EQUILIBRIUM NOT ACHIEVED WITHIN TOLERANCE.
 
	SYMMETRIC DIRECT SPARSE SOLVER RUNNING ON
 	1 HOST:        1 MPI RANK  x 1 THREAD
 	NUMBER OF EQUATIONS:     18
 	NUMBER OF RHS:           1
 	NUMBER OF FLOPS:         2.109e+03

     CHECK POINT  START OF SOLVER     

     CHECK POINT  END OF SOLVER       

       ELAPSED USER TIME (SEC)      =   0.0000    
       ELAPSED SYSTEM TIME (SEC)    =   0.0000    
       ELAPSED TOTAL CPU TIME (SEC) =   0.0000    
       ELAPSED WALLCLOCK TIME (SEC) =            0

               CONVERGENCE CHECKS FOR EQUILIBRIUM ITERATION    10


 AVERAGE FORCE                      0.621       TIME AVG. FORCE       0.284    
 LARGEST SCALED RESIDUAL FORCE     -9.875E-04   AT NODE          5   DOF  3
  CORRESPONDING RESIDUAL FORCE     -9.875E-04
 LARGEST INCREMENT OF DISP.        -4.186E-05   AT NODE          2   DOF  3
 LARGEST CORRECTION TO DISP.        6.974E-07   AT NODE          5   DOF  3
          DISP.    CORRECTION TOO LARGE COMPARED TO DISP.    INCREMENT
 
	SYMMETRIC DIRECT SPARSE SOLVER RUNNING ON
 	1 HOST:        1 MPI RANK  x 1 THREAD
 	NUMBER OF EQUATIONS:     18
 	NUMBER OF RHS:           1
 	NUMBER OF FLOPS:         2.109e+03

     CHECK POINT  START OF SOLVER     

     CHECK POINT  END OF SOLVER       

       ELAPSED USER TIME (SEC)      =   0.0000    
       ELAPSED SYSTEM TIME (SEC)    =   0.0000    
       ELAPSED TOTAL CPU TIME (SEC) =   0.0000    
       ELAPSED WALLCLOCK TIME (SEC) =            0

               CONVERGENCE CHECKS FOR EQUILIBRIUM ITERATION    11


 AVERAGE FORCE                      0.620       TIME AVG. FORCE       0.284    
 LARGEST SCALED RESIDUAL FORCE      6.488E-04   AT NODE          5   DOF  3
  CORRESPONDING RESIDUAL FORCE      6.488E-04
 LARGEST INCREMENT OF DISP.        -4.225E-05   AT NODE          5   DOF  3
 LARGEST CORRECTION TO DISP.       -4.607E-07   AT NODE          5   DOF  3
 ESTIMATE OF DISP.    CORRECTION    3.027E-07
 FORCE     EQUILIB. ACCEPTED BASED ON SMALL RESIDUAL AND ESTIMATED CORRECTION

          BECAUSE TOO MANY EQUILIBRIUM ITERATIONS HAVE BEEN USED
          THE NEXT TIME INCREMENT WILL BE REDUCED TO    1.622E-04

 ITERATION SUMMARY FOR THE INCREMENT:  11 TOTAL ITERATIONS, OF WHICH
   0 ARE SEVERE DISCONTINUITY ITERATIONS AND 11 ARE EQUILIBRIUM ITERATIONS.

 TIME INCREMENT COMPLETED  2.162E-04,  FRACTION OF STEP COMPLETED  1.504E-03
 STEP TIME COMPLETED       1.504E-03,  TOTAL TIME COMPLETED        1.504E-03


  INCREMENT    14 STARTS. ATTEMPT NUMBER  1, TIME INCREMENT  1.622E-04
 
	SYMMETRIC DIRECT SPARSE SOLVER RUNNING ON
 	1 HOST:        1 MPI RANK  x 1 THREAD
 	NUMBER OF EQUATIONS:     18
 	NUMBER OF RHS:           1
 	NUMBER OF FLOPS:         2.109e+03

     CHECK POINT  START OF SOLVER     

     CHECK POINT  END OF SOLVER       

       ELAPSED USER TIME (SEC)      =   0.0000    
       ELAPSED SYSTEM TIME (SEC)    =   0.0000    
       ELAPSED TOTAL CPU TIME (SEC) =   0.0000    
       ELAPSED WALLCLOCK TIME (SEC) =            0

               CONVERGENCE CHECKS FOR EQUILIBRIUM ITERATION     1


 AVERAGE FORCE                      0.625       TIME AVG. FORCE       0.309    
 LARGEST SCALED RESIDUAL FORCE     -8.199E-04   AT NODE          5   DOF  3
  CORRESPONDING RESIDUAL FORCE     -8.199E-04
 LARGEST INCREMENT OF DISP.        -3.126E-05   AT NODE          2   DOF  3
 LARGEST CORRECTION TO DISP.        6.605E-07   AT NODE          5   DOF  3
          DISP.    CORRECTION TOO LARGE COMPARED TO DISP.    INCREMENT
 
	SYMMETRIC DIRECT SPARSE SOLVER RUNNING ON
 	1 HOST:        1 MPI RANK  x 1 THREAD
 	NUMBER OF EQUATIONS:     18
 	NUMBER OF RHS:           1
 	NUMBER OF FLOPS:         2.109e+03

     CHECK POINT  START OF SOLVER     

     CHECK POINT  END OF SOLVER       

       ELAPSED USER TIME (SEC)      =   0.0000    
       ELAPSED SYSTEM TIME (SEC)    =   0.0000    
       ELAPSED TOTAL CPU TIME (SEC) =   0.0000    
       ELAPSED WALLCLOCK TIME (SEC) =            0

               CONVERGENCE CHECKS FOR EQUILIBRIUM ITERATION     2


 AVERAGE FORCE                      0.624       TIME AVG. FORCE       0.309    
 LARGEST SCALED RESIDUAL FORCE      4.143E-04   AT NODE          5   DOF  3
  CORRESPONDING RESIDUAL FORCE      4.143E-04
 LARGEST INCREMENT OF DISP.        -3.138E-05   AT NODE          1   DOF  3
 LARGEST CORRECTION TO DISP.       -3.445E-07   AT NODE          5   DOF  3
 ESTIMATE OF DISP.    CORRECTION    1.741E-07
 FORCE     EQUILIB. ACCEPTED BASED ON SMALL RESIDUAL AND ESTIMATED CORRECTION

 ITERATION SUMMARY FOR THE INCREMENT:   2 TOTAL ITERATIONS, OF WHICH
   0 ARE SEVERE DISCONTINUITY ITERATIONS AND  2 ARE EQUILIBRIUM ITERATIONS.

 TIME INCREMENT COMPLETED  1.622E-04,  FRACTION OF STEP COMPLETED  1.666E-03
 STEP TIME COMPLETED       1.666E-03,  TOTAL TIME COMPLETED        1.666E-03


  INCREMENT    15 STARTS. ATTEMPT NUMBER  1, TIME INCREMENT  1.622E-04
 
	SYMMETRIC DIRECT SPARSE SOLVER RUNNING ON
 	1 HOST:        1 MPI RANK  x 1 THREAD
 	NUMBER OF EQUATIONS:     18
 	NUMBER OF RHS:           1
 	NUMBER OF FLOPS:         2.109e+03

     CHECK POINT  START OF SOLVER     

     CHECK POINT  END OF SOLVER       

       ELAPSED USER TIME (SEC)      =   0.0000    
       ELAPSED SYSTEM TIME (SEC)    =   0.0000    
       ELAPSED TOTAL CPU TIME (SEC) =   0.0000    
       ELAPSED WALLCLOCK TIME (SEC) =            0

               CONVERGENCE CHECKS FOR EQUILIBRIUM ITERATION     1


 AVERAGE FORCE                      0.628       TIME AVG. FORCE       0.330    
 LARGEST SCALED RESIDUAL FORCE     -1.136E-04   AT NODE          5   DOF  3
  CORRESPONDING RESIDUAL FORCE     -1.136E-04
 LARGEST INCREMENT OF DISP.        -3.135E-05   AT NODE          2   DOF  3
 LARGEST CORRECTION TO DISP.        9.548E-08   AT NODE          5   DOF  3
          THE FORCE     EQUILIBRIUM EQUATIONS HAVE CONVERGED
          TIME INCREMENT MAY NOW INCREASE TO    2.433E-04

 ITERATION SUMMARY FOR THE INCREMENT:   1 TOTAL ITERATIONS, OF WHICH
   0 ARE SEVERE DISCONTINUITY ITERATIONS AND  1 ARE EQUILIBRIUM ITERATIONS.

 TIME INCREMENT COMPLETED  1.622E-04,  FRACTION OF STEP COMPLETED  1.828E-03
 STEP TIME COMPLETED       1.828E-03,  TOTAL TIME COMPLETED        1.828E-03


  INCREMENT    16 STARTS. ATTEMPT NUMBER  1, TIME INCREMENT  2.433E-04
 
	SYMMETRIC DIRECT SPARSE SOLVER RUNNING ON
 	1 HOST:        1 MPI RANK  x 1 THREAD
 	NUMBER OF EQUATIONS:     18
 	NUMBER OF RHS:           1
 	NUMBER OF FLOPS:         2.109e+03

     CHECK POINT  START OF SOLVER     

     CHECK POINT  END OF SOLVER       

       ELAPSED USER TIME (SEC)      =   0.0000    
       ELAPSED SYSTEM TIME (SEC)    =   0.0000    
       ELAPSED TOTAL CPU TIME (SEC) =   0.0000    
       ELAPSED WALLCLOCK TIME (SEC) =            0

               CONVERGENCE CHECKS FOR EQUILIBRIUM ITERATION     1


 AVERAGE FORCE                      0.633       TIME AVG. FORCE       0.349    
 LARGEST SCALED RESIDUAL FORCE      5.767E-04   AT NODE          5   DOF  3
  CORRESPONDING RESIDUAL FORCE      5.767E-04
 LARGEST INCREMENT OF DISP.        -4.730E-05   AT NODE          5   DOF  3
 LARGEST CORRECTION TO DISP.       -3.873E-07   AT NODE          5   DOF  3
          THE FORCE     EQUILIBRIUM EQUATIONS HAVE CONVERGED
          TIME INCREMENT MAY NOW INCREASE TO    3.649E-04

 ITERATION SUMMARY FOR THE INCREMENT:   1 TOTAL ITERATIONS, OF WHICH
   0 ARE SEVERE DISCONTINUITY ITERATIONS AND  1 ARE EQUILIBRIUM ITERATIONS.

 TIME INCREMENT COMPLETED  2.433E-04,  FRACTION OF STEP COMPLETED  2.071E-03
 STEP TIME COMPLETED       2.071E-03,  TOTAL TIME COMPLETED        2.071E-03


  INCREMENT    17 STARTS. ATTEMPT NUMBER  1, TIME INCREMENT  3.649E-04
 
	SYMMETRIC DIRECT SPARSE SOLVER RUNNING ON
 	1 HOST:        1 MPI RANK  x 1 THREAD
 	NUMBER OF EQUATIONS:     18
 	NUMBER OF RHS:           1
 	NUMBER OF FLOPS:         2.109e+03

     CHECK POINT  START OF SOLVER     

     CHECK POINT  END OF SOLVER       

       ELAPSED USER TIME (SEC)      =   0.0000    
       ELAPSED SYSTEM TIME (SEC)    =   0.0000    
       ELAPSED TOTAL CPU TIME (SEC) =   0.0000    
       ELAPSED WALLCLOCK TIME (SEC) =            0

               CONVERGENCE CHECKS FOR EQUILIBRIUM ITERATION     1


 AVERAGE FORCE                      0.644       TIME AVG. FORCE       0.366    
 LARGEST SCALED RESIDUAL FORCE     -1.785E-03   AT NODE          5   DOF  3
  CORRESPONDING RESIDUAL FORCE     -1.785E-03
 LARGEST INCREMENT OF DISP.        -7.036E-05   AT NODE          2   DOF  3
 LARGEST CORRECTION TO DISP.        9.935E-07   AT NODE          5   DOF  3
          DISP.    CORRECTION TOO LARGE COMPARED TO DISP.    INCREMENT
 
	SYMMETRIC DIRECT SPARSE SOLVER RUNNING ON
 	1 HOST:        1 MPI RANK  x 1 THREAD
 	NUMBER OF EQUATIONS:     18
 	NUMBER OF RHS:           1
 	NUMBER OF FLOPS:         2.109e+03

     CHECK POINT  START OF SOLVER     

     CHECK POINT  END OF SOLVER       

       ELAPSED USER TIME (SEC)      =   0.0000    
       ELAPSED SYSTEM TIME (SEC)    =   0.0000    
       ELAPSED TOTAL CPU TIME (SEC) =   0.0000    
       ELAPSED WALLCLOCK TIME (SEC) =            0

               CONVERGENCE CHECKS FOR EQUILIBRIUM ITERATION     2


 AVERAGE FORCE                      0.642       TIME AVG. FORCE       0.366    
 LARGEST SCALED RESIDUAL FORCE      1.784E-03   AT NODE          5   DOF  3
  CORRESPONDING RESIDUAL FORCE      1.784E-03
 LARGEST INCREMENT OF DISP.        -7.097E-05   AT NODE          5   DOF  3
 LARGEST CORRECTION TO DISP.       -1.023E-06   AT NODE          5   DOF  3
          DISP.    CORRECTION TOO LARGE COMPARED TO DISP.    INCREMENT
 
	SYMMETRIC DIRECT SPARSE SOLVER RUNNING ON
 	1 HOST:        1 MPI RANK  x 1 THREAD
 	NUMBER OF EQUATIONS:     18
 	NUMBER OF RHS:           1
 	NUMBER OF FLOPS:         2.109e+03

     CHECK POINT  START OF SOLVER     

     CHECK POINT  END OF SOLVER       

       ELAPSED USER TIME (SEC)      =   0.0000    
       ELAPSED SYSTEM TIME (SEC)    =   0.0000    
       ELAPSED TOTAL CPU TIME (SEC) =   0.0000    
       ELAPSED WALLCLOCK TIME (SEC) =            0

               CONVERGENCE CHECKS FOR EQUILIBRIUM ITERATION     3


 AVERAGE FORCE                      0.644       TIME AVG. FORCE       0.366    
 LARGEST SCALED RESIDUAL FORCE     -1.799E-03   AT NODE          5   DOF  3
  CORRESPONDING RESIDUAL FORCE     -1.799E-03
 LARGEST INCREMENT OF DISP.        -7.036E-05   AT NODE          2   DOF  3
 LARGEST CORRECTION TO DISP.        1.026E-06   AT NODE          5   DOF  3
          DISP.    CORRECTION TOO LARGE COMPARED TO DISP.    INCREMENT
 
	SYMMETRIC DIRECT SPARSE SOLVER RUNNING ON
 	1 HOST:        1 MPI RANK  x 1 THREAD
 	NUMBER OF EQUATIONS:     18
 	NUMBER OF RHS:           1
 	NUMBER OF FLOPS:         2.109e+03

     CHECK POINT  START OF SOLVER     

     CHECK POINT  END OF SOLVER       

       ELAPSED USER TIME (SEC)      =   0.0000    
       ELAPSED SYSTEM TIME (SEC)    =   0.0000    
       ELAPSED TOTAL CPU TIME (SEC) =   0.0000    
       ELAPSED WALLCLOCK TIME (SEC) =            0

               CONVERGENCE CHECKS FOR EQUILIBRIUM ITERATION     4


 AVERAGE FORCE                      0.642       TIME AVG. FORCE       0.366    
 LARGEST SCALED RESIDUAL FORCE      1.799E-03   AT NODE          5   DOF  3
  CORRESPONDING RESIDUAL FORCE      1.799E-03
 LARGEST INCREMENT OF DISP.        -7.098E-05   AT NODE          5   DOF  3
 LARGEST CORRECTION TO DISP.       -1.030E-06   AT NODE          5   DOF  3
          DISP.    CORRECTION TOO LARGE COMPARED TO DISP.    INCREMENT
 

 ***NOTE: THE SOLUTION APPEARS TO BE DIVERGING. CONVERGENCE IS JUDGED UNLIKELY.


  INCREMENT    17 STARTS. ATTEMPT NUMBER  2, TIME INCREMENT  9.123E-05
 
	SYMMETRIC DIRECT SPARSE SOLVER RUNNING ON
 	1 HOST:        1 MPI RANK  x 1 THREAD
 	NUMBER OF EQUATIONS:     18
 	NUMBER OF RHS:           1
 	NUMBER OF FLOPS:         2.109e+03

     CHECK POINT  START OF SOLVER     

     CHECK POINT  END OF SOLVER       

       ELAPSED USER TIME (SEC)      =   0.0000    
       ELAPSED SYSTEM TIME (SEC)    =   0.0000    
       ELAPSED TOTAL CPU TIME (SEC) =   0.0000    
       ELAPSED WALLCLOCK TIME (SEC) =            0

               CONVERGENCE CHECKS FOR EQUILIBRIUM ITERATION     1


 AVERAGE FORCE                      0.636       TIME AVG. FORCE       0.366    
 LARGEST SCALED RESIDUAL FORCE     -2.630E-04   AT NODE          5   DOF  3
  CORRESPONDING RESIDUAL FORCE     -2.630E-04
 LARGEST INCREMENT OF DISP.        -1.756E-05   AT NODE          2   DOF  3
 LARGEST CORRECTION TO DISP.        3.018E-07   AT NODE          5   DOF  3
 ESTIMATE OF DISP.    CORRECTION   -9.254E-08
 FORCE     EQUILIB. ACCEPTED BASED ON SMALL RESIDUAL AND ESTIMATED CORRECTION
          TIME INCREMENT MAY NOW INCREASE TO    1.368E-04

 ITERATION SUMMARY FOR THE INCREMENT:   1 TOTAL ITERATIONS, OF WHICH
   0 ARE SEVERE DISCONTINUITY ITERATIONS AND  1 ARE EQUILIBRIUM ITERATIONS.

 TIME INCREMENT COMPLETED  9.123E-05,  FRACTION OF STEP COMPLETED  2.163E-03
 STEP TIME COMPLETED       2.163E-03,  TOTAL TIME COMPLETED        2.163E-03


  INCREMENT    18 STARTS. ATTEMPT NUMBER  1, TIME INCREMENT  1.368E-04
 
	SYMMETRIC DIRECT SPARSE SOLVER RUNNING ON
 	1 HOST:        1 MPI RANK  x 1 THREAD
 	NUMBER OF EQUATIONS:     18
 	NUMBER OF RHS:           1
 	NUMBER OF FLOPS:         2.109e+03

     CHECK POINT  START OF SOLVER     

     CHECK POINT  END OF SOLVER       

       ELAPSED USER TIME (SEC)      =   0.0000    
       ELAPSED SYSTEM TIME (SEC)    =   0.0000    
       ELAPSED TOTAL CPU TIME (SEC) =   0.0000    
       ELAPSED WALLCLOCK TIME (SEC) =            0

               CONVERGENCE CHECKS FOR EQUILIBRIUM ITERATION     1


 AVERAGE FORCE                      0.639       TIME AVG. FORCE       0.381    
 LARGEST SCALED RESIDUAL FORCE      6.368E-04   AT NODE          5   DOF  3
  CORRESPONDING RESIDUAL FORCE      6.368E-04
 LARGEST INCREMENT OF DISP.        -2.673E-05   AT NODE          5   DOF  3
 LARGEST CORRECTION TO DISP.       -5.771E-07   AT NODE          5   DOF  3
 ESTIMATE OF DISP.    CORRECTION    2.495E-07
 FORCE     EQUILIB. ACCEPTED BASED ON SMALL RESIDUAL AND ESTIMATED CORRECTION
          TIME INCREMENT MAY NOW INCREASE TO    2.053E-04

 ITERATION SUMMARY FOR THE INCREMENT:   1 TOTAL ITERATIONS, OF WHICH
   0 ARE SEVERE DISCONTINUITY ITERATIONS AND  1 ARE EQUILIBRIUM ITERATIONS.

 TIME INCREMENT COMPLETED  1.368E-04,  FRACTION OF STEP COMPLETED  2.299E-03
 STEP TIME COMPLETED       2.299E-03,  TOTAL TIME COMPLETED        2.299E-03


  INCREMENT    19 STARTS. ATTEMPT NUMBER  1, TIME INCREMENT  2.053E-04
 
	SYMMETRIC DIRECT SPARSE SOLVER RUNNING ON
 	1 HOST:        1 MPI RANK  x 1 THREAD
 	NUMBER OF EQUATIONS:     18
 	NUMBER OF RHS:           1
 	NUMBER OF FLOPS:         2.109e+03

     CHECK POINT  START OF SOLVER     

     CHECK POINT  END OF SOLVER       

       ELAPSED USER TIME (SEC)      =   0.0000    
       ELAPSED SYSTEM TIME (SEC)    =   0.0000    
       ELAPSED TOTAL CPU TIME (SEC) =   0.0000    
       ELAPSED WALLCLOCK TIME (SEC) =            0

               CONVERGENCE CHECKS FOR EQUILIBRIUM ITERATION     1


 AVERAGE FORCE                      0.645       TIME AVG. FORCE       0.395    
 LARGEST SCALED RESIDUAL FORCE     -1.239E-03   AT NODE          5   DOF  3
  CORRESPONDING RESIDUAL FORCE     -1.239E-03
 LARGEST INCREMENT OF DISP.        -3.951E-05   AT NODE          2   DOF  3
 LARGEST CORRECTION TO DISP.        8.998E-07   AT NODE          5   DOF  3
          DISP.    CORRECTION TOO LARGE COMPARED TO DISP.    INCREMENT
 
	SYMMETRIC DIRECT SPARSE SOLVER RUNNING ON
 	1 HOST:        1 MPI RANK  x 1 THREAD
 	NUMBER OF EQUATIONS:     18
 	NUMBER OF RHS:           1
 	NUMBER OF FLOPS:         2.109e+03

     CHECK POINT  START OF SOLVER     

     CHECK POINT  END OF SOLVER       

       ELAPSED USER TIME (SEC)      =   0.0000    
       ELAPSED SYSTEM TIME (SEC)    =   0.0000    
       ELAPSED TOTAL CPU TIME (SEC) =   0.0000    
       ELAPSED WALLCLOCK TIME (SEC) =            0

               CONVERGENCE CHECKS FOR EQUILIBRIUM ITERATION     2


 AVERAGE FORCE                      0.643       TIME AVG. FORCE       0.395    
 LARGEST SCALED RESIDUAL FORCE      7.510E-04   AT NODE          5   DOF  3
  CORRESPONDING RESIDUAL FORCE      7.510E-04
 LARGEST INCREMENT OF DISP.        -3.975E-05   AT NODE          5   DOF  3
 LARGEST CORRECTION TO DISP.       -5.580E-07   AT NODE          5   DOF  3
 ESTIMATE OF DISP.    CORRECTION    3.381E-07
 FORCE     EQUILIB. ACCEPTED BASED ON SMALL RESIDUAL AND ESTIMATED CORRECTION
          TIME INCREMENT MAY NOW INCREASE TO    3.079E-04

 ITERATION SUMMARY FOR THE INCREMENT:   2 TOTAL ITERATIONS, OF WHICH
   0 ARE SEVERE DISCONTINUITY ITERATIONS AND  2 ARE EQUILIBRIUM ITERATIONS.

 TIME INCREMENT COMPLETED  2.053E-04,  FRACTION OF STEP COMPLETED  2.505E-03
 STEP TIME COMPLETED       2.505E-03,  TOTAL TIME COMPLETED        2.505E-03


  INCREMENT    20 STARTS. ATTEMPT NUMBER  1, TIME INCREMENT  3.079E-04
 
	SYMMETRIC DIRECT SPARSE SOLVER RUNNING ON
 	1 HOST:        1 MPI RANK  x 1 THREAD
 	NUMBER OF EQUATIONS:     18
 	NUMBER OF RHS:           1
 	NUMBER OF FLOPS:         2.109e+03

     CHECK POINT  START OF SOLVER     

     CHECK POINT  END OF SOLVER       

       ELAPSED USER TIME (SEC)      =   0.0000    
       ELAPSED SYSTEM TIME (SEC)    =   0.0000    
       ELAPSED TOTAL CPU TIME (SEC) =   0.0000    
       ELAPSED WALLCLOCK TIME (SEC) =            0

               CONVERGENCE CHECKS FOR EQUILIBRIUM ITERATION     1


 AVERAGE FORCE                      0.651       TIME AVG. FORCE       0.408    
 LARGEST SCALED RESIDUAL FORCE     -9.110E-04   AT NODE          5   DOF  3
  CORRESPONDING RESIDUAL FORCE     -9.110E-04
 LARGEST INCREMENT OF DISP.        -5.935E-05   AT NODE          2   DOF  3
 LARGEST CORRECTION TO DISP.        5.476E-07   AT NODE          5   DOF  3
          THE FORCE     EQUILIBRIUM EQUATIONS HAVE CONVERGED
          TIME INCREMENT MAY NOW INCREASE TO    4.618E-04

 ITERATION SUMMARY FOR THE INCREMENT:   1 TOTAL ITERATIONS, OF WHICH
   0 ARE SEVERE DISCONTINUITY ITERATIONS AND  1 ARE EQUILIBRIUM ITERATIONS.

 TIME INCREMENT COMPLETED  3.079E-04,  FRACTION OF STEP COMPLETED  2.813E-03
 STEP TIME COMPLETED       2.813E-03,  TOTAL TIME COMPLETED        2.813E-03


  INCREMENT    21 STARTS. ATTEMPT NUMBER  1, TIME INCREMENT  4.618E-04
 
	SYMMETRIC DIRECT SPARSE SOLVER RUNNING ON
 	1 HOST:        1 MPI RANK  x 1 THREAD
 	NUMBER OF EQUATIONS:     18
 	NUMBER OF RHS:           1
 	NUMBER OF FLOPS:         2.109e+03

     CHECK POINT  START OF SOLVER     

     CHECK POINT  END OF SOLVER       

       ELAPSED USER TIME (SEC)      =   0.0000    
       ELAPSED SYSTEM TIME (SEC)    =  0.10000    
       ELAPSED TOTAL CPU TIME (SEC) =  0.10000    
       ELAPSED WALLCLOCK TIME (SEC) =            0

               CONVERGENCE CHECKS FOR EQUILIBRIUM ITERATION     1


 AVERAGE FORCE                      0.660       TIME AVG. FORCE       0.420    
 LARGEST SCALED RESIDUAL FORCE      3.608E-03   AT NODE          5   DOF  3
  CORRESPONDING RESIDUAL FORCE      3.608E-03
 LARGEST INCREMENT OF DISP.        -9.052E-05   AT NODE          5   DOF  3
 LARGEST CORRECTION TO DISP.       -1.900E-06   AT NODE          5   DOF  3
          FORCE     EQUILIBRIUM NOT ACHIEVED WITHIN TOLERANCE.
 
	SYMMETRIC DIRECT SPARSE SOLVER RUNNING ON
 	1 HOST:        1 MPI RANK  x 1 THREAD
 	NUMBER OF EQUATIONS:     18
 	NUMBER OF RHS:           1
 	NUMBER OF FLOPS:         2.109e+03

     CHECK POINT  START OF SOLVER     

     CHECK POINT  END OF SOLVER       

       ELAPSED USER TIME (SEC)      =   0.0000    
       ELAPSED SYSTEM TIME (SEC)    =   0.0000    
       ELAPSED TOTAL CPU TIME (SEC) =   0.0000    
       ELAPSED WALLCLOCK TIME (SEC) =            0

               CONVERGENCE CHECKS FOR EQUILIBRIUM ITERATION     2


 AVERAGE FORCE                      0.665       TIME AVG. FORCE       0.420    
 LARGEST SCALED RESIDUAL FORCE     -4.360E-03   AT NODE          5   DOF  3
  CORRESPONDING RESIDUAL FORCE     -4.360E-03
 LARGEST INCREMENT OF DISP.        -8.891E-05   AT NODE          2   DOF  3
 LARGEST CORRECTION TO DISP.        2.300E-06   AT NODE          5   DOF  3
          FORCE     EQUILIBRIUM NOT ACHIEVED WITHIN TOLERANCE.
 
	SYMMETRIC DIRECT SPARSE SOLVER RUNNING ON
 	1 HOST:        1 MPI RANK  x 1 THREAD
 	NUMBER OF EQUATIONS:     18
 	NUMBER OF RHS:           1
 	NUMBER OF FLOPS:         2.109e+03

     CHECK POINT  START OF SOLVER     

     CHECK POINT  END OF SOLVER       

       ELAPSED USER TIME (SEC)      =   0.0000    
       ELAPSED SYSTEM TIME (SEC)    =   0.0000    
       ELAPSED TOTAL CPU TIME (SEC) =   0.0000    
       ELAPSED WALLCLOCK TIME (SEC) =            0

               CONVERGENCE CHECKS FOR EQUILIBRIUM ITERATION     3


 AVERAGE FORCE                      0.660       TIME AVG. FORCE       0.420    
 LARGEST SCALED RESIDUAL FORCE      5.204E-03   AT NODE          5   DOF  3
  CORRESPONDING RESIDUAL FORCE      5.204E-03
 LARGEST INCREMENT OF DISP.        -9.098E-05   AT NODE          5   DOF  3
 LARGEST CORRECTION TO DISP.       -2.759E-06   AT NODE          5   DOF  3
          FORCE     EQUILIBRIUM NOT ACHIEVED WITHIN TOLERANCE.
 
	SYMMETRIC DIRECT SPARSE SOLVER RUNNING ON
 	1 HOST:        1 MPI RANK  x 1 THREAD
 	NUMBER OF EQUATIONS:     18
 	NUMBER OF RHS:           1
 	NUMBER OF FLOPS:         2.109e+03

     CHECK POINT  START OF SOLVER     

     CHECK POINT  END OF SOLVER       

       ELAPSED USER TIME (SEC)      =   0.0000    
       ELAPSED SYSTEM TIME (SEC)    =   0.0000    
       ELAPSED TOTAL CPU TIME (SEC) =   0.0000    
       ELAPSED WALLCLOCK TIME (SEC) =            0

               CONVERGENCE CHECKS FOR EQUILIBRIUM ITERATION     4


 AVERAGE FORCE                      0.666       TIME AVG. FORCE       0.420    
 LARGEST SCALED RESIDUAL FORCE     -6.307E-03   AT NODE          5   DOF  3
  CORRESPONDING RESIDUAL FORCE     -6.307E-03
 LARGEST INCREMENT OF DISP.        -8.871E-05   AT NODE          2   DOF  3
 LARGEST CORRECTION TO DISP.        3.321E-06   AT NODE          5   DOF  3
          FORCE     EQUILIBRIUM NOT ACHIEVED WITHIN TOLERANCE.
 

 ***NOTE: THE SOLUTION APPEARS TO BE DIVERGING. CONVERGENCE IS JUDGED UNLIKELY.


  INCREMENT    21 STARTS. ATTEMPT NUMBER  2, TIME INCREMENT  1.155E-04
 
	SYMMETRIC DIRECT SPARSE SOLVER RUNNING ON
 	1 HOST:        1 MPI RANK  x 1 THREAD
 	NUMBER OF EQUATIONS:     18
 	NUMBER OF RHS:           1
 	NUMBER OF FLOPS:         2.109e+03

     CHECK POINT  START OF SOLVER     

     CHECK POINT  END OF SOLVER       

       ELAPSED USER TIME (SEC)      =   0.0000    
       ELAPSED SYSTEM TIME (SEC)    =   0.0000    
       ELAPSED TOTAL CPU TIME (SEC) =   0.0000    
       ELAPSED WALLCLOCK TIME (SEC) =            0

               CONVERGENCE CHECKS FOR EQUILIBRIUM ITERATION     1


 AVERAGE FORCE                      0.653       TIME AVG. FORCE       0.419    
 LARGEST SCALED RESIDUAL FORCE      5.430E-04   AT NODE          5   DOF  3
  CORRESPONDING RESIDUAL FORCE      5.430E-04
 LARGEST INCREMENT OF DISP.        -2.270E-05   AT NODE          5   DOF  3
 LARGEST CORRECTION TO DISP.       -5.499E-07   AT NODE          5   DOF  3
 ESTIMATE OF DISP.    CORRECTION    2.014E-07
 FORCE     EQUILIB. ACCEPTED BASED ON SMALL RESIDUAL AND ESTIMATED CORRECTION
          TIME INCREMENT MAY NOW INCREASE TO    1.732E-04

 ITERATION SUMMARY FOR THE INCREMENT:   1 TOTAL ITERATIONS, OF WHICH
   0 ARE SEVERE DISCONTINUITY ITERATIONS AND  1 ARE EQUILIBRIUM ITERATIONS.

 TIME INCREMENT COMPLETED  1.155E-04,  FRACTION OF STEP COMPLETED  2.928E-03
 STEP TIME COMPLETED       2.928E-03,  TOTAL TIME COMPLETED        2.928E-03


  INCREMENT    22 STARTS. ATTEMPT NUMBER  1, TIME INCREMENT  1.732E-04
 
	SYMMETRIC DIRECT SPARSE SOLVER RUNNING ON
 	1 HOST:        1 MPI RANK  x 1 THREAD
 	NUMBER OF EQUATIONS:     18
 	NUMBER OF RHS:           1
 	NUMBER OF FLOPS:         2.109e+03

     CHECK POINT  START OF SOLVER     

     CHECK POINT  END OF SOLVER       

       ELAPSED USER TIME (SEC)      =   0.0000    
       ELAPSED SYSTEM TIME (SEC)    =   0.0000    
       ELAPSED TOTAL CPU TIME (SEC) =   0.0000    
       ELAPSED WALLCLOCK TIME (SEC) =            0

               CONVERGENCE CHECKS FOR EQUILIBRIUM ITERATION     1


 AVERAGE FORCE                      0.658       TIME AVG. FORCE       0.430    
 LARGEST SCALED RESIDUAL FORCE     -1.441E-03   AT NODE          5   DOF  3
  CORRESPONDING RESIDUAL FORCE     -1.441E-03
 LARGEST INCREMENT OF DISP.        -3.326E-05   AT NODE          2   DOF  3
 LARGEST CORRECTION TO DISP.        1.137E-06   AT NODE          5   DOF  3
          DISP.    CORRECTION TOO LARGE COMPARED TO DISP.    INCREMENT
 
	SYMMETRIC DIRECT SPARSE SOLVER RUNNING ON
 	1 HOST:        1 MPI RANK  x 1 THREAD
 	NUMBER OF EQUATIONS:     18
 	NUMBER OF RHS:           1
 	NUMBER OF FLOPS:         2.109e+03

     CHECK POINT  START OF SOLVER     

     CHECK POINT  END OF SOLVER       

       ELAPSED USER TIME (SEC)      =   0.0000    
       ELAPSED SYSTEM TIME (SEC)    =   0.0000    
       ELAPSED TOTAL CPU TIME (SEC) =   0.0000    
       ELAPSED WALLCLOCK TIME (SEC) =            0

               CONVERGENCE CHECKS FOR EQUILIBRIUM ITERATION     2


 AVERAGE FORCE                      0.657       TIME AVG. FORCE       0.430    
 LARGEST SCALED RESIDUAL FORCE      7.374E-04   AT NODE          5   DOF  3
  CORRESPONDING RESIDUAL FORCE      7.374E-04
 LARGEST INCREMENT OF DISP.        -3.353E-05   AT NODE          5   DOF  3
 LARGEST CORRECTION TO DISP.       -6.069E-07   AT NODE          5   DOF  3
 ESTIMATE OF DISP.    CORRECTION    3.106E-07
 FORCE     EQUILIB. ACCEPTED BASED ON SMALL RESIDUAL AND ESTIMATED CORRECTION
          TIME INCREMENT MAY NOW INCREASE TO    2.598E-04

 ITERATION SUMMARY FOR THE INCREMENT:   2 TOTAL ITERATIONS, OF WHICH
   0 ARE SEVERE DISCONTINUITY ITERATIONS AND  2 ARE EQUILIBRIUM ITERATIONS.

 TIME INCREMENT COMPLETED  1.732E-04,  FRACTION OF STEP COMPLETED  3.101E-03
 STEP TIME COMPLETED       3.101E-03,  TOTAL TIME COMPLETED        3.101E-03


  INCREMENT    23 STARTS. ATTEMPT NUMBER  1, TIME INCREMENT  2.598E-04
 
	SYMMETRIC DIRECT SPARSE SOLVER RUNNING ON
 	1 HOST:        1 MPI RANK  x 1 THREAD
 	NUMBER OF EQUATIONS:     18
 	NUMBER OF RHS:           1
 	NUMBER OF FLOPS:         2.109e+03

     CHECK POINT  START OF SOLVER     

     CHECK POINT  END OF SOLVER       

       ELAPSED USER TIME (SEC)      =   0.0000    
       ELAPSED SYSTEM TIME (SEC)    =   0.0000    
       ELAPSED TOTAL CPU TIME (SEC) =   0.0000    
       ELAPSED WALLCLOCK TIME (SEC) =            0

               CONVERGENCE CHECKS FOR EQUILIBRIUM ITERATION     1


 AVERAGE FORCE                      0.664       TIME AVG. FORCE       0.440    
 LARGEST SCALED RESIDUAL FORCE     -8.241E-04   AT NODE          5   DOF  3
  CORRESPONDING RESIDUAL FORCE     -8.241E-04
 LARGEST INCREMENT OF DISP.        -5.000E-05   AT NODE          2   DOF  3
 LARGEST CORRECTION TO DISP.        5.389E-07   AT NODE          5   DOF  3
 ESTIMATE OF DISP.    CORRECTION   -3.999E-07
 FORCE     EQUILIB. ACCEPTED BASED ON SMALL RESIDUAL AND ESTIMATED CORRECTION
          TIME INCREMENT MAY NOW INCREASE TO    3.897E-04

 ITERATION SUMMARY FOR THE INCREMENT:   1 TOTAL ITERATIONS, OF WHICH
   0 ARE SEVERE DISCONTINUITY ITERATIONS AND  1 ARE EQUILIBRIUM ITERATIONS.

 TIME INCREMENT COMPLETED  2.598E-04,  FRACTION OF STEP COMPLETED  3.361E-03
 STEP TIME COMPLETED       3.361E-03,  TOTAL TIME COMPLETED        3.361E-03


  INCREMENT    24 STARTS. ATTEMPT NUMBER  1, TIME INCREMENT  3.897E-04
 
	SYMMETRIC DIRECT SPARSE SOLVER RUNNING ON
 	1 HOST:        1 MPI RANK  x 1 THREAD
 	NUMBER OF EQUATIONS:     18
 	NUMBER OF RHS:           1
 	NUMBER OF FLOPS:         2.109e+03

     CHECK POINT  START OF SOLVER     

     CHECK POINT  END OF SOLVER       

       ELAPSED USER TIME (SEC)      =   0.0000    
       ELAPSED SYSTEM TIME (SEC)    =   0.0000    
       ELAPSED TOTAL CPU TIME (SEC) =   0.0000    
       ELAPSED WALLCLOCK TIME (SEC) =            0

               CONVERGENCE CHECKS FOR EQUILIBRIUM ITERATION     1


 AVERAGE FORCE                      0.671       TIME AVG. FORCE       0.450    
 LARGEST SCALED RESIDUAL FORCE      2.939E-03   AT NODE          5   DOF  3
  CORRESPONDING RESIDUAL FORCE      2.939E-03
 LARGEST INCREMENT OF DISP.        -7.628E-05   AT NODE          5   DOF  3
 LARGEST CORRECTION TO DISP.       -1.651E-06   AT NODE          5   DOF  3
          FORCE     EQUILIBRIUM NOT ACHIEVED WITHIN TOLERANCE.
 
	SYMMETRIC DIRECT SPARSE SOLVER RUNNING ON
 	1 HOST:        1 MPI RANK  x 1 THREAD
 	NUMBER OF EQUATIONS:     18
 	NUMBER OF RHS:           1
 	NUMBER OF FLOPS:         2.109e+03

     CHECK POINT  START OF SOLVER     

     CHECK POINT  END OF SOLVER       

       ELAPSED USER TIME (SEC)      =  0.10000    
       ELAPSED SYSTEM TIME (SEC)    =   0.0000    
       ELAPSED TOTAL CPU TIME (SEC) =  0.10000    
       ELAPSED WALLCLOCK TIME (SEC) =            0

               CONVERGENCE CHECKS FOR EQUILIBRIUM ITERATION     2


 AVERAGE FORCE                      0.674       TIME AVG. FORCE       0.450    
 LARGEST SCALED RESIDUAL FORCE     -3.037E-03   AT NODE          5   DOF  3
  CORRESPONDING RESIDUAL FORCE     -3.037E-03
 LARGEST INCREMENT OF DISP.        -7.501E-05   AT NODE          2   DOF  3
 LARGEST CORRECTION TO DISP.        1.709E-06   AT NODE          5   DOF  3
          FORCE     EQUILIBRIUM NOT ACHIEVED WITHIN TOLERANCE.
 
	SYMMETRIC DIRECT SPARSE SOLVER RUNNING ON
 	1 HOST:        1 MPI RANK  x 1 THREAD
 	NUMBER OF EQUATIONS:     18
 	NUMBER OF RHS:           1
 	NUMBER OF FLOPS:         2.109e+03

     CHECK POINT  START OF SOLVER     

     CHECK POINT  END OF SOLVER       

       ELAPSED USER TIME (SEC)      =   0.0000    
       ELAPSED SYSTEM TIME (SEC)    =   0.0000    
       ELAPSED TOTAL CPU TIME (SEC) =   0.0000    
       ELAPSED WALLCLOCK TIME (SEC) =            0

               CONVERGENCE CHECKS FOR EQUILIBRIUM ITERATION     3


 AVERAGE FORCE                      0.671       TIME AVG. FORCE       0.450    
 LARGEST SCALED RESIDUAL FORCE      3.104E-03   AT NODE          5   DOF  3
  CORRESPONDING RESIDUAL FORCE      3.104E-03
 LARGEST INCREMENT OF DISP.        -7.632E-05   AT NODE          5   DOF  3
 LARGEST CORRECTION TO DISP.       -1.755E-06   AT NODE          5   DOF  3
          FORCE     EQUILIBRIUM NOT ACHIEVED WITHIN TOLERANCE.
 
	SYMMETRIC DIRECT SPARSE SOLVER RUNNING ON
 	1 HOST:        1 MPI RANK  x 1 THREAD
 	NUMBER OF EQUATIONS:     18
 	NUMBER OF RHS:           1
 	NUMBER OF FLOPS:         2.109e+03

     CHECK POINT  START OF SOLVER     

     CHECK POINT  END OF SOLVER       

       ELAPSED USER TIME (SEC)      =   0.0000    
       ELAPSED SYSTEM TIME (SEC)    =   0.0000    
       ELAPSED TOTAL CPU TIME (SEC) =   0.0000    
       ELAPSED WALLCLOCK TIME (SEC) =            0

               CONVERGENCE CHECKS FOR EQUILIBRIUM ITERATION     4


 AVERAGE FORCE                      0.674       TIME AVG. FORCE       0.450    
 LARGEST SCALED RESIDUAL FORCE     -3.210E-03   AT NODE          5   DOF  3
  CORRESPONDING RESIDUAL FORCE     -3.210E-03
 LARGEST INCREMENT OF DISP.        -7.499E-05   AT NODE          2   DOF  3
 LARGEST CORRECTION TO DISP.        1.805E-06   AT NODE          5   DOF  3
          FORCE     EQUILIBRIUM NOT ACHIEVED WITHIN TOLERANCE.
 

 ***NOTE: THE SOLUTION APPEARS TO BE DIVERGING. CONVERGENCE IS JUDGED UNLIKELY.


  INCREMENT    24 STARTS. ATTEMPT NUMBER  2, TIME INCREMENT  9.742E-05
 
	SYMMETRIC DIRECT SPARSE SOLVER RUNNING ON
 	1 HOST:        1 MPI RANK  x 1 THREAD
 	NUMBER OF EQUATIONS:     18
 	NUMBER OF RHS:           1
 	NUMBER OF FLOPS:         2.109e+03

     CHECK POINT  START OF SOLVER     

     CHECK POINT  END OF SOLVER       

       ELAPSED USER TIME (SEC)      =   0.0000    
       ELAPSED SYSTEM TIME (SEC)    =   0.0000    
       ELAPSED TOTAL CPU TIME (SEC) =   0.0000    
       ELAPSED WALLCLOCK TIME (SEC) =            0

               CONVERGENCE CHECKS FOR EQUILIBRIUM ITERATION     1


 AVERAGE FORCE                      0.665       TIME AVG. FORCE       0.450    
 LARGEST SCALED RESIDUAL FORCE      4.229E-04   AT NODE          5   DOF  3
  CORRESPONDING RESIDUAL FORCE      4.229E-04
 LARGEST INCREMENT OF DISP.        -1.914E-05   AT NODE          5   DOF  3
 LARGEST CORRECTION TO DISP.       -4.857E-07   AT NODE          5   DOF  3
 ESTIMATE OF DISP.    CORRECTION    1.497E-07
 FORCE     EQUILIB. ACCEPTED BASED ON SMALL RESIDUAL AND ESTIMATED CORRECTION
          TIME INCREMENT MAY NOW INCREASE TO    1.461E-04

 ITERATION SUMMARY FOR THE INCREMENT:   1 TOTAL ITERATIONS, OF WHICH
   0 ARE SEVERE DISCONTINUITY ITERATIONS AND  1 ARE EQUILIBRIUM ITERATIONS.

 TIME INCREMENT COMPLETED  9.742E-05,  FRACTION OF STEP COMPLETED  3.458E-03
 STEP TIME COMPLETED       3.458E-03,  TOTAL TIME COMPLETED        3.458E-03


  INCREMENT    25 STARTS. ATTEMPT NUMBER  1, TIME INCREMENT  1.461E-04
 
	SYMMETRIC DIRECT SPARSE SOLVER RUNNING ON
 	1 HOST:        1 MPI RANK  x 1 THREAD
 	NUMBER OF EQUATIONS:     18
 	NUMBER OF RHS:           1
 	NUMBER OF FLOPS:         2.109e+03

     CHECK POINT  START OF SOLVER     

     CHECK POINT  END OF SOLVER       

       ELAPSED USER TIME (SEC)      =   0.0000    
       ELAPSED SYSTEM TIME (SEC)    =   0.0000    
       ELAPSED TOTAL CPU TIME (SEC) =   0.0000    
       ELAPSED WALLCLOCK TIME (SEC) =            0

               CONVERGENCE CHECKS FOR EQUILIBRIUM ITERATION     1


 AVERAGE FORCE                      0.669       TIME AVG. FORCE       0.458    
 LARGEST SCALED RESIDUAL FORCE     -1.027E-03   AT NODE          5   DOF  3
  CORRESPONDING RESIDUAL FORCE     -1.027E-03
 LARGEST INCREMENT OF DISP.        -2.806E-05   AT NODE          2   DOF  3
 LARGEST CORRECTION TO DISP.        9.017E-07   AT NODE          5   DOF  3
          DISP.    CORRECTION TOO LARGE COMPARED TO DISP.    INCREMENT
 
	SYMMETRIC DIRECT SPARSE SOLVER RUNNING ON
 	1 HOST:        1 MPI RANK  x 1 THREAD
 	NUMBER OF EQUATIONS:     18
 	NUMBER OF RHS:           1
 	NUMBER OF FLOPS:         2.109e+03

     CHECK POINT  START OF SOLVER     

     CHECK POINT  END OF SOLVER       

       ELAPSED USER TIME (SEC)      =   0.0000    
       ELAPSED SYSTEM TIME (SEC)    =   0.0000    
       ELAPSED TOTAL CPU TIME (SEC) =   0.0000    
       ELAPSED WALLCLOCK TIME (SEC) =            0

               CONVERGENCE CHECKS FOR EQUILIBRIUM ITERATION     2


 AVERAGE FORCE                      0.668       TIME AVG. FORCE       0.458    
 LARGEST SCALED RESIDUAL FORCE      4.462E-04   AT NODE          5   DOF  3
  CORRESPONDING RESIDUAL FORCE      4.462E-04
 LARGEST INCREMENT OF DISP.        -2.822E-05   AT NODE          5   DOF  3
 LARGEST CORRECTION TO DISP.       -4.081E-07   AT NODE          5   DOF  3
 ESTIMATE OF DISP.    CORRECTION    1.773E-07
 FORCE     EQUILIB. ACCEPTED BASED ON SMALL RESIDUAL AND ESTIMATED CORRECTION
          TIME INCREMENT MAY NOW INCREASE TO    2.192E-04

 ITERATION SUMMARY FOR THE INCREMENT:   2 TOTAL ITERATIONS, OF WHICH
   0 ARE SEVERE DISCONTINUITY ITERATIONS AND  2 ARE EQUILIBRIUM ITERATIONS.

 TIME INCREMENT COMPLETED  1.461E-04,  FRACTION OF STEP COMPLETED  3.605E-03
 STEP TIME COMPLETED       3.605E-03,  TOTAL TIME COMPLETED        3.605E-03


  INCREMENT    26 STARTS. ATTEMPT NUMBER  1, TIME INCREMENT  2.192E-04
 
	SYMMETRIC DIRECT SPARSE SOLVER RUNNING ON
 	1 HOST:        1 MPI RANK  x 1 THREAD
 	NUMBER OF EQUATIONS:     18
 	NUMBER OF RHS:           1
 	NUMBER OF FLOPS:         2.109e+03

     CHECK POINT  START OF SOLVER     

     CHECK POINT  END OF SOLVER       

       ELAPSED USER TIME (SEC)      =   0.0000    
       ELAPSED SYSTEM TIME (SEC)    =   0.0000    
       ELAPSED TOTAL CPU TIME (SEC) =   0.0000    
       ELAPSED WALLCLOCK TIME (SEC) =            0

               CONVERGENCE CHECKS FOR EQUILIBRIUM ITERATION     1


 AVERAGE FORCE                      0.673       TIME AVG. FORCE       0.467    
 LARGEST SCALED RESIDUAL FORCE     -3.457E-04   AT NODE          5   DOF  3
  CORRESPONDING RESIDUAL FORCE     -3.457E-04
 LARGEST INCREMENT OF DISP.        -4.221E-05   AT NODE          2   DOF  3
 LARGEST CORRECTION TO DISP.        2.459E-07   AT NODE          5   DOF  3
          THE FORCE     EQUILIBRIUM EQUATIONS HAVE CONVERGED
          TIME INCREMENT MAY NOW INCREASE TO    3.288E-04

 ITERATION SUMMARY FOR THE INCREMENT:   1 TOTAL ITERATIONS, OF WHICH
   0 ARE SEVERE DISCONTINUITY ITERATIONS AND  1 ARE EQUILIBRIUM ITERATIONS.

 TIME INCREMENT COMPLETED  2.192E-04,  FRACTION OF STEP COMPLETED  3.824E-03
 STEP TIME COMPLETED       3.824E-03,  TOTAL TIME COMPLETED        3.824E-03


  INCREMENT    27 STARTS. ATTEMPT NUMBER  1, TIME INCREMENT  3.288E-04
 
	SYMMETRIC DIRECT SPARSE SOLVER RUNNING ON
 	1 HOST:        1 MPI RANK  x 1 THREAD
 	NUMBER OF EQUATIONS:     18
 	NUMBER OF RHS:           1
 	NUMBER OF FLOPS:         2.109e+03

     CHECK POINT  START OF SOLVER     

     CHECK POINT  END OF SOLVER       

       ELAPSED USER TIME (SEC)      =   0.0000    
       ELAPSED SYSTEM TIME (SEC)    =   0.0000    
       ELAPSED TOTAL CPU TIME (SEC) =   0.0000    
       ELAPSED WALLCLOCK TIME (SEC) =            0

               CONVERGENCE CHECKS FOR EQUILIBRIUM ITERATION     1


 AVERAGE FORCE                      0.680       TIME AVG. FORCE       0.474    
 LARGEST SCALED RESIDUAL FORCE      1.175E-03   AT NODE          5   DOF  3
  CORRESPONDING RESIDUAL FORCE      1.175E-03
 LARGEST INCREMENT OF DISP.        -6.384E-05   AT NODE          5   DOF  3
 LARGEST CORRECTION TO DISP.       -7.129E-07   AT NODE          5   DOF  3
 ESTIMATE OF DISP.    CORRECTION    6.239E-07
 FORCE     EQUILIB. ACCEPTED BASED ON SMALL RESIDUAL AND ESTIMATED CORRECTION
          TIME INCREMENT MAY NOW INCREASE TO    4.932E-04

 ITERATION SUMMARY FOR THE INCREMENT:   1 TOTAL ITERATIONS, OF WHICH
   0 ARE SEVERE DISCONTINUITY ITERATIONS AND  1 ARE EQUILIBRIUM ITERATIONS.

 TIME INCREMENT COMPLETED  3.288E-04,  FRACTION OF STEP COMPLETED  4.153E-03
 STEP TIME COMPLETED       4.153E-03,  TOTAL TIME COMPLETED        4.153E-03


  INCREMENT    28 STARTS. ATTEMPT NUMBER  1, TIME INCREMENT  4.932E-04
 
	SYMMETRIC DIRECT SPARSE SOLVER RUNNING ON
 	1 HOST:        1 MPI RANK  x 1 THREAD
 	NUMBER OF EQUATIONS:     18
 	NUMBER OF RHS:           1
 	NUMBER OF FLOPS:         2.109e+03

     CHECK POINT  START OF SOLVER     

     CHECK POINT  END OF SOLVER       

       ELAPSED USER TIME (SEC)      =   0.0000    
       ELAPSED SYSTEM TIME (SEC)    =   0.0000    
       ELAPSED TOTAL CPU TIME (SEC) =   0.0000    
       ELAPSED WALLCLOCK TIME (SEC) =            0

               CONVERGENCE CHECKS FOR EQUILIBRIUM ITERATION     1


 AVERAGE FORCE                      0.694       TIME AVG. FORCE       0.482    
 LARGEST SCALED RESIDUAL FORCE     -4.614E-03   AT NODE          5   DOF  3
  CORRESPONDING RESIDUAL FORCE     -4.614E-03
 LARGEST INCREMENT OF DISP.        -9.445E-05   AT NODE          2   DOF  3
 LARGEST CORRECTION TO DISP.        2.351E-06   AT NODE          5   DOF  3
          FORCE     EQUILIBRIUM NOT ACHIEVED WITHIN TOLERANCE.
 
	SYMMETRIC DIRECT SPARSE SOLVER RUNNING ON
 	1 HOST:        1 MPI RANK  x 1 THREAD
 	NUMBER OF EQUATIONS:     18
 	NUMBER OF RHS:           1
 	NUMBER OF FLOPS:         2.109e+03

     CHECK POINT  START OF SOLVER     

     CHECK POINT  END OF SOLVER       

       ELAPSED USER TIME (SEC)      =   0.0000    
       ELAPSED SYSTEM TIME (SEC)    =   0.0000    
       ELAPSED TOTAL CPU TIME (SEC) =   0.0000    
       ELAPSED WALLCLOCK TIME (SEC) =            0

               CONVERGENCE CHECKS FOR EQUILIBRIUM ITERATION     2


 AVERAGE FORCE                      0.689       TIME AVG. FORCE       0.482    
 LARGEST SCALED RESIDUAL FORCE      5.614E-03   AT NODE          5   DOF  3
  CORRESPONDING RESIDUAL FORCE      5.614E-03
 LARGEST INCREMENT OF DISP.        -9.636E-05   AT NODE          5   DOF  3
 LARGEST CORRECTION TO DISP.       -2.948E-06   AT NODE          5   DOF  3
          FORCE     EQUILIBRIUM NOT ACHIEVED WITHIN TOLERANCE.
 
	SYMMETRIC DIRECT SPARSE SOLVER RUNNING ON
 	1 HOST:        1 MPI RANK  x 1 THREAD
 	NUMBER OF EQUATIONS:     18
 	NUMBER OF RHS:           1
 	NUMBER OF FLOPS:         2.109e+03

     CHECK POINT  START OF SOLVER     

     CHECK POINT  END OF SOLVER       

       ELAPSED USER TIME (SEC)      =   0.0000    
       ELAPSED SYSTEM TIME (SEC)    =   0.0000    
       ELAPSED TOTAL CPU TIME (SEC) =   0.0000    
       ELAPSED WALLCLOCK TIME (SEC) =            0

               CONVERGENCE CHECKS FOR EQUILIBRIUM ITERATION     3


 AVERAGE FORCE                      0.696       TIME AVG. FORCE       0.482    
 LARGEST SCALED RESIDUAL FORCE     -6.945E-03   AT NODE          5   DOF  3
  CORRESPONDING RESIDUAL FORCE     -6.945E-03
 LARGEST INCREMENT OF DISP.        -9.421E-05   AT NODE          2   DOF  3
 LARGEST CORRECTION TO DISP.        3.616E-06   AT NODE          5   DOF  3
          FORCE     EQUILIBRIUM NOT ACHIEVED WITHIN TOLERANCE.
 
	SYMMETRIC DIRECT SPARSE SOLVER RUNNING ON
 	1 HOST:        1 MPI RANK  x 1 THREAD
 	NUMBER OF EQUATIONS:     18
 	NUMBER OF RHS:           1
 	NUMBER OF FLOPS:         2.109e+03

     CHECK POINT  START OF SOLVER     

     CHECK POINT  END OF SOLVER       

       ELAPSED USER TIME (SEC)      =   0.0000    
       ELAPSED SYSTEM TIME (SEC)    =   0.0000    
       ELAPSED TOTAL CPU TIME (SEC) =   0.0000    
       ELAPSED WALLCLOCK TIME (SEC) =            0

               CONVERGENCE CHECKS FOR EQUILIBRIUM ITERATION     4


 AVERAGE FORCE                      0.688       TIME AVG. FORCE       0.482    
 LARGEST SCALED RESIDUAL FORCE      8.428E-03   AT NODE          5   DOF  3
  CORRESPONDING RESIDUAL FORCE      8.428E-03
 LARGEST INCREMENT OF DISP.        -9.717E-05   AT NODE          5   DOF  3
 LARGEST CORRECTION TO DISP.       -4.427E-06   AT NODE          5   DOF  3
          FORCE     EQUILIBRIUM NOT ACHIEVED WITHIN TOLERANCE.
 

 ***NOTE: THE SOLUTION APPEARS TO BE DIVERGING. CONVERGENCE IS JUDGED UNLIKELY.


  INCREMENT    28 STARTS. ATTEMPT NUMBER  2, TIME INCREMENT  1.233E-04
 
	SYMMETRIC DIRECT SPARSE SOLVER RUNNING ON
 	1 HOST:        1 MPI RANK  x 1 THREAD
 	NUMBER OF EQUATIONS:     18
 	NUMBER OF RHS:           1
 	NUMBER OF FLOPS:         2.109e+03

     CHECK POINT  START OF SOLVER     

     CHECK POINT  END OF SOLVER       

       ELAPSED USER TIME (SEC)      =   0.0000    
       ELAPSED SYSTEM TIME (SEC)    =   0.0000    
       ELAPSED TOTAL CPU TIME (SEC) =   0.0000    
       ELAPSED WALLCLOCK TIME (SEC) =            0

               CONVERGENCE CHECKS FOR EQUILIBRIUM ITERATION     1


 AVERAGE FORCE                      0.683       TIME AVG. FORCE       0.482    
 LARGEST SCALED RESIDUAL FORCE     -6.800E-04   AT NODE          5   DOF  3
  CORRESPONDING RESIDUAL FORCE     -6.800E-04
 LARGEST INCREMENT OF DISP.        -2.355E-05   AT NODE          2   DOF  3
 LARGEST CORRECTION TO DISP.        6.624E-07   AT NODE          5   DOF  3
          DISP.    CORRECTION TOO LARGE COMPARED TO DISP.    INCREMENT
 
	SYMMETRIC DIRECT SPARSE SOLVER RUNNING ON
 	1 HOST:        1 MPI RANK  x 1 THREAD
 	NUMBER OF EQUATIONS:     18
 	NUMBER OF RHS:           1
 	NUMBER OF FLOPS:         2.109e+03

     CHECK POINT  START OF SOLVER     

     CHECK POINT  END OF SOLVER       

       ELAPSED USER TIME (SEC)      =   0.0000    
       ELAPSED SYSTEM TIME (SEC)    =   0.0000    
       ELAPSED TOTAL CPU TIME (SEC) =   0.0000    
[...]
       ELAPSED SYSTEM TIME (SEC)    =   0.0000    
       ELAPSED TOTAL CPU TIME (SEC) =   0.0000    
       ELAPSED WALLCLOCK TIME (SEC) =            0

               CONVERGENCE CHECKS FOR EQUILIBRIUM ITERATION    15


 AVERAGE FORCE                      0.882       TIME AVG. FORCE       0.990    
 LARGEST SCALED RESIDUAL FORCE     -4.486E-03   AT NODE          5   DOF  3
  CORRESPONDING RESIDUAL FORCE     -4.486E-03
 LARGEST INCREMENT OF DISP.         8.437E-05   AT NODE          1   DOF  1
 LARGEST CORRECTION TO DISP.        1.243E-06   AT NODE          5   DOF  3
          DISP.    CORRECTION TOO LARGE COMPARED TO DISP.    INCREMENT
 
	SYMMETRIC DIRECT SPARSE SOLVER RUNNING ON
 	1 HOST:        1 MPI RANK  x 1 THREAD
 	NUMBER OF EQUATIONS:     18
 	NUMBER OF RHS:           1
 	NUMBER OF FLOPS:         2.109e+03

     CHECK POINT  START OF SOLVER     

     CHECK POINT  END OF SOLVER       

       ELAPSED USER TIME (SEC)      =   0.0000    
       ELAPSED SYSTEM TIME (SEC)    =   0.0000    
       ELAPSED TOTAL CPU TIME (SEC) =   0.0000    
       ELAPSED WALLCLOCK TIME (SEC) =            0

               CONVERGENCE CHECKS FOR EQUILIBRIUM ITERATION    16


 AVERAGE FORCE                      0.880       TIME AVG. FORCE       0.990    
 LARGEST SCALED RESIDUAL FORCE      4.447E-03   AT NODE          5   DOF  3
  CORRESPONDING RESIDUAL FORCE      4.447E-03
 LARGEST INCREMENT OF DISP.         8.437E-05   AT NODE          1   DOF  1
 LARGEST CORRECTION TO DISP.       -1.236E-06   AT NODE          5   DOF  3
          DISP.    CORRECTION TOO LARGE COMPARED TO DISP.    INCREMENT
 

 ***NOTE: THE SOLUTION FAILS TO CONVERGE IN THE MAXIMUM NUMBER OF EQUILIBRIUM 
          ITERATIONS ALLOWED.


  INCREMENT   994 STARTS. ATTEMPT NUMBER  2, TIME INCREMENT  2.109E-04
 
	SYMMETRIC DIRECT SPARSE SOLVER RUNNING ON
 	1 HOST:        1 MPI RANK  x 1 THREAD
 	NUMBER OF EQUATIONS:     18
 	NUMBER OF RHS:           1
 	NUMBER OF FLOPS:         2.109e+03

     CHECK POINT  START OF SOLVER     

     CHECK POINT  END OF SOLVER       

       ELAPSED USER TIME (SEC)      =   0.0000    
       ELAPSED SYSTEM TIME (SEC)    =   0.0000    
       ELAPSED TOTAL CPU TIME (SEC) =   0.0000    
       ELAPSED WALLCLOCK TIME (SEC) =            0

               CONVERGENCE CHECKS FOR EQUILIBRIUM ITERATION     1


 AVERAGE FORCE                      0.880       TIME AVG. FORCE       0.990    
 LARGEST SCALED RESIDUAL FORCE     -4.174E-04   AT NODE          5   DOF  3
  CORRESPONDING RESIDUAL FORCE     -4.174E-04
 LARGEST INCREMENT OF DISP.         2.109E-05   AT NODE          1   DOF  1
 LARGEST CORRECTION TO DISP.        2.201E-07   AT NODE          5   DOF  3
 ESTIMATE OF DISP.    CORRECTION   -6.269E-08
 FORCE     EQUILIB. ACCEPTED BASED ON SMALL RESIDUAL AND ESTIMATED CORRECTION
          TIME INCREMENT MAY NOW INCREASE TO    3.164E-04

 ITERATION SUMMARY FOR THE INCREMENT:   1 TOTAL ITERATIONS, OF WHICH
   0 ARE SEVERE DISCONTINUITY ITERATIONS AND  1 ARE EQUILIBRIUM ITERATIONS.

 TIME INCREMENT COMPLETED  2.109E-04,  FRACTION OF STEP COMPLETED  0.404    
 STEP TIME COMPLETED       0.404    ,  TOTAL TIME COMPLETED        0.404    


  INCREMENT   995 STARTS. ATTEMPT NUMBER  1, TIME INCREMENT  3.164E-04
 
	SYMMETRIC DIRECT SPARSE SOLVER RUNNING ON
 	1 HOST:        1 MPI RANK  x 1 THREAD
 	NUMBER OF EQUATIONS:     18
 	NUMBER OF RHS:           1
 	NUMBER OF FLOPS:         2.109e+03

     CHECK POINT  START OF SOLVER     

     CHECK POINT  END OF SOLVER       

       ELAPSED USER TIME (SEC)      =   0.0000    
       ELAPSED SYSTEM TIME (SEC)    =   0.0000    
       ELAPSED TOTAL CPU TIME (SEC) =   0.0000    
       ELAPSED WALLCLOCK TIME (SEC) =            0

               CONVERGENCE CHECKS FOR EQUILIBRIUM ITERATION     1


 AVERAGE FORCE                      0.880       TIME AVG. FORCE       0.990    
 LARGEST SCALED RESIDUAL FORCE      6.782E-04   AT NODE          5   DOF  3
  CORRESPONDING RESIDUAL FORCE      6.782E-04
 LARGEST INCREMENT OF DISP.         3.164E-05   AT NODE          1   DOF  1
 LARGEST CORRECTION TO DISP.       -3.093E-07   AT NODE          5   DOF  3
          THE FORCE     EQUILIBRIUM EQUATIONS HAVE CONVERGED
          TIME INCREMENT MAY NOW INCREASE TO    4.746E-04

 ITERATION SUMMARY FOR THE INCREMENT:   1 TOTAL ITERATIONS, OF WHICH
   0 ARE SEVERE DISCONTINUITY ITERATIONS AND  1 ARE EQUILIBRIUM ITERATIONS.

 TIME INCREMENT COMPLETED  3.164E-04,  FRACTION OF STEP COMPLETED  0.404    
 STEP TIME COMPLETED       0.404    ,  TOTAL TIME COMPLETED        0.404    


  INCREMENT   996 STARTS. ATTEMPT NUMBER  1, TIME INCREMENT  4.746E-04
 
	SYMMETRIC DIRECT SPARSE SOLVER RUNNING ON
 	1 HOST:        1 MPI RANK  x 1 THREAD
 	NUMBER OF EQUATIONS:     18
 	NUMBER OF RHS:           1
 	NUMBER OF FLOPS:         2.109e+03

     CHECK POINT  START OF SOLVER     

     CHECK POINT  END OF SOLVER       

       ELAPSED USER TIME (SEC)      =   0.0000    
       ELAPSED SYSTEM TIME (SEC)    =   0.0000    
       ELAPSED TOTAL CPU TIME (SEC) =   0.0000    
       ELAPSED WALLCLOCK TIME (SEC) =            0

               CONVERGENCE CHECKS FOR EQUILIBRIUM ITERATION     1


 AVERAGE FORCE                      0.880       TIME AVG. FORCE       0.990    
 LARGEST SCALED RESIDUAL FORCE     -1.667E-03   AT NODE          5   DOF  3
  CORRESPONDING RESIDUAL FORCE     -1.667E-03
 LARGEST INCREMENT OF DISP.         4.746E-05   AT NODE          1   DOF  1
 LARGEST CORRECTION TO DISP.        5.483E-07   AT NODE          5   DOF  3
 ESTIMATE OF DISP.    CORRECTION   -3.269E-07
 FORCE     EQUILIB. ACCEPTED BASED ON SMALL RESIDUAL AND ESTIMATED CORRECTION
          TIME INCREMENT MAY NOW INCREASE TO    7.119E-04

 ITERATION SUMMARY FOR THE INCREMENT:   1 TOTAL ITERATIONS, OF WHICH
   0 ARE SEVERE DISCONTINUITY ITERATIONS AND  1 ARE EQUILIBRIUM ITERATIONS.

 TIME INCREMENT COMPLETED  4.746E-04,  FRACTION OF STEP COMPLETED  0.405    
 STEP TIME COMPLETED       0.405    ,  TOTAL TIME COMPLETED        0.405    


  INCREMENT   997 STARTS. ATTEMPT NUMBER  1, TIME INCREMENT  7.119E-04
 
	SYMMETRIC DIRECT SPARSE SOLVER RUNNING ON
 	1 HOST:        1 MPI RANK  x 1 THREAD
 	NUMBER OF EQUATIONS:     18
 	NUMBER OF RHS:           1
 	NUMBER OF FLOPS:         2.109e+03

     CHECK POINT  START OF SOLVER     

     CHECK POINT  END OF SOLVER       

       ELAPSED USER TIME (SEC)      =   0.0000    
       ELAPSED SYSTEM TIME (SEC)    =   0.0000    
       ELAPSED TOTAL CPU TIME (SEC) =   0.0000    
       ELAPSED WALLCLOCK TIME (SEC) =            0

               CONVERGENCE CHECKS FOR EQUILIBRIUM ITERATION     1


 AVERAGE FORCE                      0.879       TIME AVG. FORCE       0.990    
 LARGEST SCALED RESIDUAL FORCE      3.425E-03   AT NODE          5   DOF  3
  CORRESPONDING RESIDUAL FORCE      3.425E-03
 LARGEST INCREMENT OF DISP.         7.119E-05   AT NODE          1   DOF  1
 LARGEST CORRECTION TO DISP.       -1.065E-06   AT NODE          5   DOF  3
          DISP.    CORRECTION TOO LARGE COMPARED TO DISP.    INCREMENT
 
	SYMMETRIC DIRECT SPARSE SOLVER RUNNING ON
 	1 HOST:        1 MPI RANK  x 1 THREAD
 	NUMBER OF EQUATIONS:     18
 	NUMBER OF RHS:           1
 	NUMBER OF FLOPS:         2.109e+03

     CHECK POINT  START OF SOLVER     

     CHECK POINT  END OF SOLVER       

       ELAPSED USER TIME (SEC)      =   0.0000    
       ELAPSED SYSTEM TIME (SEC)    =   0.0000    
       ELAPSED TOTAL CPU TIME (SEC) =   0.0000    
       ELAPSED WALLCLOCK TIME (SEC) =            0

               CONVERGENCE CHECKS FOR EQUILIBRIUM ITERATION     2


 AVERAGE FORCE                      0.880       TIME AVG. FORCE       0.990    
 LARGEST SCALED RESIDUAL FORCE     -2.934E-03   AT NODE          5   DOF  3
  CORRESPONDING RESIDUAL FORCE     -2.934E-03
 LARGEST INCREMENT OF DISP.         7.119E-05   AT NODE          1   DOF  1
 LARGEST CORRECTION TO DISP.        8.678E-07   AT NODE          5   DOF  3
          DISP.    CORRECTION TOO LARGE COMPARED TO DISP.    INCREMENT
 
	SYMMETRIC DIRECT SPARSE SOLVER RUNNING ON
 	1 HOST:        1 MPI RANK  x 1 THREAD
 	NUMBER OF EQUATIONS:     18
 	NUMBER OF RHS:           1
 	NUMBER OF FLOPS:         2.109e+03

     CHECK POINT  START OF SOLVER     

     CHECK POINT  END OF SOLVER       

       ELAPSED USER TIME (SEC)      =   0.0000    
       ELAPSED SYSTEM TIME (SEC)    =   0.0000    
       ELAPSED TOTAL CPU TIME (SEC) =   0.0000    
       ELAPSED WALLCLOCK TIME (SEC) =            0

               CONVERGENCE CHECKS FOR EQUILIBRIUM ITERATION     3


 AVERAGE FORCE                      0.879       TIME AVG. FORCE       0.990    
 LARGEST SCALED RESIDUAL FORCE      2.501E-03   AT NODE          5   DOF  3
  CORRESPONDING RESIDUAL FORCE      2.501E-03
 LARGEST INCREMENT OF DISP.         7.119E-05   AT NODE          1   DOF  1
 LARGEST CORRECTION TO DISP.       -7.440E-07   AT NODE          5   DOF  3
 ESTIMATE OF DISP.    CORRECTION    6.341E-07
 FORCE     EQUILIB. ACCEPTED BASED ON SMALL RESIDUAL AND ESTIMATED CORRECTION
          TIME INCREMENT MAY NOW INCREASE TO    1.000E-03

 ITERATION SUMMARY FOR THE INCREMENT:   3 TOTAL ITERATIONS, OF WHICH
   0 ARE SEVERE DISCONTINUITY ITERATIONS AND  3 ARE EQUILIBRIUM ITERATIONS.

 TIME INCREMENT COMPLETED  7.119E-04,  FRACTION OF STEP COMPLETED  0.405    
 STEP TIME COMPLETED       0.405    ,  TOTAL TIME COMPLETED        0.405    


  INCREMENT   998 STARTS. ATTEMPT NUMBER  1, TIME INCREMENT  1.000E-03
 
	SYMMETRIC DIRECT SPARSE SOLVER RUNNING ON
 	1 HOST:        1 MPI RANK  x 1 THREAD
 	NUMBER OF EQUATIONS:     18
 	NUMBER OF RHS:           1
 	NUMBER OF FLOPS:         2.109e+03

     CHECK POINT  START OF SOLVER     

     CHECK POINT  END OF SOLVER       

       ELAPSED USER TIME (SEC)      =   0.0000    
       ELAPSED SYSTEM TIME (SEC)    =   0.0000    
       ELAPSED TOTAL CPU TIME (SEC) =   0.0000    
       ELAPSED WALLCLOCK TIME (SEC) =            0

               CONVERGENCE CHECKS FOR EQUILIBRIUM ITERATION     1


 AVERAGE FORCE                      0.885       TIME AVG. FORCE       0.990    
 LARGEST SCALED RESIDUAL FORCE     -1.226E-02   AT NODE          5   DOF  3
  CORRESPONDING RESIDUAL FORCE     -1.226E-02
 LARGEST INCREMENT OF DISP.         1.000E-04   AT NODE          1   DOF  1
 LARGEST CORRECTION TO DISP.        2.916E-06   AT NODE          5   DOF  3
          FORCE     EQUILIBRIUM NOT ACHIEVED WITHIN TOLERANCE.
 
	SYMMETRIC DIRECT SPARSE SOLVER RUNNING ON
 	1 HOST:        1 MPI RANK  x 1 THREAD
 	NUMBER OF EQUATIONS:     18
 	NUMBER OF RHS:           1
 	NUMBER OF FLOPS:         2.109e+03

     CHECK POINT  START OF SOLVER     

     CHECK POINT  END OF SOLVER       

       ELAPSED USER TIME (SEC)      =   0.0000    
       ELAPSED SYSTEM TIME (SEC)    =   0.0000    
       ELAPSED TOTAL CPU TIME (SEC) =   0.0000    
       ELAPSED WALLCLOCK TIME (SEC) =            0

               CONVERGENCE CHECKS FOR EQUILIBRIUM ITERATION     2


 AVERAGE FORCE                      0.879       TIME AVG. FORCE       0.990    
 LARGEST SCALED RESIDUAL FORCE      1.407E-02   AT NODE          5   DOF  3
  CORRESPONDING RESIDUAL FORCE      1.407E-02
 LARGEST INCREMENT OF DISP.         1.000E-04   AT NODE          1   DOF  1
 LARGEST CORRECTION TO DISP.       -3.680E-06   AT NODE          5   DOF  3
          FORCE     EQUILIBRIUM NOT ACHIEVED WITHIN TOLERANCE.
 
	SYMMETRIC DIRECT SPARSE SOLVER RUNNING ON
 	1 HOST:        1 MPI RANK  x 1 THREAD
 	NUMBER OF EQUATIONS:     18
 	NUMBER OF RHS:           1
 	NUMBER OF FLOPS:         2.109e+03

     CHECK POINT  START OF SOLVER     

     CHECK POINT  END OF SOLVER       

       ELAPSED USER TIME (SEC)      =   0.0000    
       ELAPSED SYSTEM TIME (SEC)    =   0.0000    
       ELAPSED TOTAL CPU TIME (SEC) =   0.0000    
       ELAPSED WALLCLOCK TIME (SEC) =            0

               CONVERGENCE CHECKS FOR EQUILIBRIUM ITERATION     3


 AVERAGE FORCE                      0.887       TIME AVG. FORCE       0.990    
 LARGEST SCALED RESIDUAL FORCE     -1.639E-02   AT NODE          5   DOF  3
  CORRESPONDING RESIDUAL FORCE     -1.639E-02
 LARGEST INCREMENT OF DISP.         1.000E-04   AT NODE          1   DOF  1
 LARGEST CORRECTION TO DISP.        4.240E-06   AT NODE          5   DOF  3
          FORCE     EQUILIBRIUM NOT ACHIEVED WITHIN TOLERANCE.
 
	SYMMETRIC DIRECT SPARSE SOLVER RUNNING ON
 	1 HOST:        1 MPI RANK  x 1 THREAD
 	NUMBER OF EQUATIONS:     18
 	NUMBER OF RHS:           1
 	NUMBER OF FLOPS:         2.109e+03

     CHECK POINT  START OF SOLVER     

     CHECK POINT  END OF SOLVER       

       ELAPSED USER TIME (SEC)      =   0.0000    
       ELAPSED SYSTEM TIME (SEC)    =   0.0000    
       ELAPSED TOTAL CPU TIME (SEC) =   0.0000    
       ELAPSED WALLCLOCK TIME (SEC) =            0

               CONVERGENCE CHECKS FOR EQUILIBRIUM ITERATION     4


 AVERAGE FORCE                      0.880       TIME AVG. FORCE       0.990    
 LARGEST SCALED RESIDUAL FORCE      1.878E-02   AT NODE          5   DOF  3
  CORRESPONDING RESIDUAL FORCE      1.878E-02
 LARGEST INCREMENT OF DISP.         1.000E-04   AT NODE          1   DOF  1
 LARGEST CORRECTION TO DISP.       -4.894E-06   AT NODE          5   DOF  3
          FORCE     EQUILIBRIUM NOT ACHIEVED WITHIN TOLERANCE.
 

 ***NOTE: THE SOLUTION APPEARS TO BE DIVERGING. CONVERGENCE IS JUDGED UNLIKELY.


  INCREMENT   998 STARTS. ATTEMPT NUMBER  2, TIME INCREMENT  2.500E-04
 
	SYMMETRIC DIRECT SPARSE SOLVER RUNNING ON
 	1 HOST:        1 MPI RANK  x 1 THREAD
 	NUMBER OF EQUATIONS:     18
 	NUMBER OF RHS:           1
 	NUMBER OF FLOPS:         2.109e+03

     CHECK POINT  START OF SOLVER     

     CHECK POINT  END OF SOLVER       

       ELAPSED USER TIME (SEC)      =   0.0000    
       ELAPSED SYSTEM TIME (SEC)    =   0.0000    
       ELAPSED TOTAL CPU TIME (SEC) =   0.0000    
       ELAPSED WALLCLOCK TIME (SEC) =            0

               CONVERGENCE CHECKS FOR EQUILIBRIUM ITERATION     1


 AVERAGE FORCE                      0.879       TIME AVG. FORCE       0.990    
 LARGEST SCALED RESIDUAL FORCE     -1.424E-03   AT NODE          5   DOF  3
  CORRESPONDING RESIDUAL FORCE     -1.424E-03
 LARGEST INCREMENT OF DISP.         2.500E-05   AT NODE          1   DOF  1
 LARGEST CORRECTION TO DISP.        6.917E-07   AT NODE          5   DOF  3
 ESTIMATE OF DISP.    CORRECTION   -2.304E-07
 FORCE     EQUILIB. ACCEPTED BASED ON SMALL RESIDUAL AND ESTIMATED CORRECTION
          TIME INCREMENT MAY NOW INCREASE TO    3.750E-04

 ITERATION SUMMARY FOR THE INCREMENT:   1 TOTAL ITERATIONS, OF WHICH
   0 ARE SEVERE DISCONTINUITY ITERATIONS AND  1 ARE EQUILIBRIUM ITERATIONS.

 TIME INCREMENT COMPLETED  2.500E-04,  FRACTION OF STEP COMPLETED  0.406    
 STEP TIME COMPLETED       0.406    ,  TOTAL TIME COMPLETED        0.406    


  INCREMENT   999 STARTS. ATTEMPT NUMBER  1, TIME INCREMENT  3.750E-04
 
	SYMMETRIC DIRECT SPARSE SOLVER RUNNING ON
 	1 HOST:        1 MPI RANK  x 1 THREAD
 	NUMBER OF EQUATIONS:     18
 	NUMBER OF RHS:           1
 	NUMBER OF FLOPS:         2.109e+03

     CHECK POINT  START OF SOLVER     

     CHECK POINT  END OF SOLVER       

       ELAPSED USER TIME (SEC)      =   0.0000    
       ELAPSED SYSTEM TIME (SEC)    =   0.0000    
       ELAPSED TOTAL CPU TIME (SEC) =   0.0000    
       ELAPSED WALLCLOCK TIME (SEC) =            0

               CONVERGENCE CHECKS FOR EQUILIBRIUM ITERATION     1


 AVERAGE FORCE                      0.879       TIME AVG. FORCE       0.989    
 LARGEST SCALED RESIDUAL FORCE      3.309E-03   AT NODE          5   DOF  3
  CORRESPONDING RESIDUAL FORCE      3.309E-03
 LARGEST INCREMENT OF DISP.         3.750E-05   AT NODE          1   DOF  1
 LARGEST CORRECTION TO DISP.       -1.318E-06   AT NODE          5   DOF  3
          DISP.    CORRECTION TOO LARGE COMPARED TO DISP.    INCREMENT
 
	SYMMETRIC DIRECT SPARSE SOLVER RUNNING ON
 	1 HOST:        1 MPI RANK  x 1 THREAD
 	NUMBER OF EQUATIONS:     18
 	NUMBER OF RHS:           1
 	NUMBER OF FLOPS:         2.109e+03

     CHECK POINT  START OF SOLVER     

     CHECK POINT  END OF SOLVER       

       ELAPSED USER TIME (SEC)      =   0.0000    
       ELAPSED SYSTEM TIME (SEC)    =   0.0000    
       ELAPSED TOTAL CPU TIME (SEC) =   0.0000    
       ELAPSED WALLCLOCK TIME (SEC) =            0

               CONVERGENCE CHECKS FOR EQUILIBRIUM ITERATION     2


 AVERAGE FORCE                      0.879       TIME AVG. FORCE       0.989    
 LARGEST SCALED RESIDUAL FORCE     -1.592E-03   AT NODE          5   DOF  3
  CORRESPONDING RESIDUAL FORCE     -1.592E-03
 LARGEST INCREMENT OF DISP.         3.750E-05   AT NODE          1   DOF  1
 LARGEST CORRECTION TO DISP.        6.476E-07   AT NODE          5   DOF  3
 ESTIMATE OF DISP.    CORRECTION   -3.116E-07
 FORCE     EQUILIB. ACCEPTED BASED ON SMALL RESIDUAL AND ESTIMATED CORRECTION
          TIME INCREMENT MAY NOW INCREASE TO    5.625E-04

 ITERATION SUMMARY FOR THE INCREMENT:   2 TOTAL ITERATIONS, OF WHICH
   0 ARE SEVERE DISCONTINUITY ITERATIONS AND  2 ARE EQUILIBRIUM ITERATIONS.

 TIME INCREMENT COMPLETED  3.750E-04,  FRACTION OF STEP COMPLETED  0.406    
 STEP TIME COMPLETED       0.406    ,  TOTAL TIME COMPLETED        0.406    


  INCREMENT  1000 STARTS. ATTEMPT NUMBER  1, TIME INCREMENT  5.625E-04
 
	SYMMETRIC DIRECT SPARSE SOLVER RUNNING ON
 	1 HOST:        1 MPI RANK  x 1 THREAD
 	NUMBER OF EQUATIONS:     18
 	NUMBER OF RHS:           1
 	NUMBER OF FLOPS:         2.109e+03

     CHECK POINT  START OF SOLVER     

     CHECK POINT  END OF SOLVER       

       ELAPSED USER TIME (SEC)      =   0.0000    
       ELAPSED SYSTEM TIME (SEC)    =   0.0000    
       ELAPSED TOTAL CPU TIME (SEC) =   0.0000    
       ELAPSED WALLCLOCK TIME (SEC) =            0

               CONVERGENCE CHECKS FOR EQUILIBRIUM ITERATION     1


 AVERAGE FORCE                      0.878       TIME AVG. FORCE       0.989    
 LARGEST SCALED RESIDUAL FORCE      7.883E-04   AT NODE          5   DOF  3
  CORRESPONDING RESIDUAL FORCE      7.883E-04
 LARGEST INCREMENT OF DISP.         5.625E-05   AT NODE          1   DOF  1
 LARGEST CORRECTION TO DISP.       -3.085E-07   AT NODE          5   DOF  3
          THE FORCE     EQUILIBRIUM EQUATIONS HAVE CONVERGED
          TIME INCREMENT MAY NOW INCREASE TO    8.438E-04

 ITERATION SUMMARY FOR THE INCREMENT:   1 TOTAL ITERATIONS, OF WHICH
   0 ARE SEVERE DISCONTINUITY ITERATIONS AND  1 ARE EQUILIBRIUM ITERATIONS.

 TIME INCREMENT COMPLETED  5.625E-04,  FRACTION OF STEP COMPLETED  0.407    
 STEP TIME COMPLETED       0.407    ,  TOTAL TIME COMPLETED        0.407    
 

 ***ERROR: TOO MANY INCREMENTS NEEDED TO COMPLETE THE STEP

 ***ERROR: THE ANALYSIS HAS BEEN TERMINATED DUE TO PREVIOUS ERRORS. ALL OUTPUT 
           REQUESTS HAVE BEEN WRITTEN FOR THE LAST CONVERGED INCREMENT.



     ANALYSIS SUMMARY:
     TOTAL OF       1000  INCREMENTS
                     227  CUTBACKS IN AUTOMATIC INCREMENTATION
                    3359  ITERATIONS INCLUDING CONTACT ITERATIONS IF PRESENT
                    3359  PASSES THROUGH THE EQUATION SOLVER OF WHICH 
                    3359  INVOLVE MATRIX DECOMPOSITION, INCLUDING
                       0  DECOMPOSITION(S) OF THE MASS MATRIX
                       1  REORDERING OF EQUATIONS TO MINIMIZE WAVEFRONT
                       0  ADDITIONAL RESIDUAL EVALUATIONS FOR LINE SEARCHES
                       0  ADDITIONAL OPERATOR EVALUATIONS FOR LINE SEARCHES
                       8  WARNING MESSAGES DURING USER INPUT PROCESSING
                       0  WARNING MESSAGES DURING ANALYSIS
                       0  ANALYSIS WARNINGS ARE NUMERICAL PROBLEM MESSAGES
                       0  ANALYSIS WARNINGS ARE NEGATIVE EIGENVALUE MESSAGES
                       2  ERROR MESSAGES



     JOB TIME SUMMARY
       USER TIME (SEC)      =      41.    
       SYSTEM TIME (SEC)    =      13.    
       TOTAL CPU TIME (SEC) =      54.    
       WALLCLOCK TIME (SEC) =           73
       MEMORY PEAK (GB)     =            0
