 Abaqus/Standard 2023                  DATE 31-May-2024 TIME 15:29:51
 SUMMARY OF JOB INFORMATION:
 STEP  INC ATT SEVERE EQUIL TOTAL  TOTAL      STEP       INC OF       DOF    IF
               DISCON ITERS ITERS  TIME/    TIME/LPF    TIME/LPF    MONITOR RIKS
               ITERS               FREQ
   1     1   1     0     2     2  1.00e-05   1.00e-05   1.000e-05 
   1     2   1     0     1     1  2.00e-05   2.00e-05   1.000e-05 
   1     3   1     0     1     1  3.50e-05   3.50e-05   1.500e-05 
   1     4   1     0     1     1  5.75e-05   5.75e-05   2.250e-05 
   1     5   1     0     1     1  9.13e-05   9.13e-05   3.375e-05 
   1     6   1     0     1     1  0.000142   0.000142   5.063e-05 
   1     7   1     0     1     1  0.000218   0.000218   7.594e-05 
   1     8   1     0     1     1  0.000332   0.000332   0.0001139 
   1     9   1     0     1     1  0.000503   0.000503   0.0001709 
   1    10   1     0     1     1  0.000759   0.000759   0.0002563 
   1    11   1     0     1     1  0.00114    0.00114    0.0003844 
   1    12   1U    0     4     4  0.00114    0.00114    0.0005767 
   1    12   2     0     2     2  0.00129    0.00129    0.0001442 
   1    13   1     0    11    11  0.00150    0.00150    0.0002162 
   1    14   1     0     2     2  0.00167    0.00167    0.0001622 
   1    15   1     0     1     1  0.00183    0.00183    0.0001622 
   1    16   1     0     1     1  0.00207    0.00207    0.0002433 
   1    17   1U    0     4     4  0.00207    0.00207    0.0003649 
   1    17   2     0     1     1  0.00216    0.00216    9.123e-05 
   1    18   1     0     1     1  0.00230    0.00230    0.0001368 
   1    19   1     0     2     2  0.00250    0.00250    0.0002053 
   1    20   1     0     1     1  0.00281    0.00281    0.0003079 
   1    21   1U    0     4     4  0.00281    0.00281    0.0004618 
   1    21   2     0     1     1  0.00293    0.00293    0.0001155 
   1    22   1     0     2     2  0.00310    0.00310    0.0001732 
   1    23   1     0     1     1  0.00336    0.00336    0.0002598 
   1    24   1U    0     4     4  0.00336    0.00336    0.0003897 
   1    24   2     0     1     1  0.00346    0.00346    9.742e-05 
   1    25   1     0     2     2  0.00360    0.00360    0.0001461 
   1    26   1     0     1     1  0.00382    0.00382    0.0002192 
   1    27   1     0     1     1  0.00415    0.00415    0.0003288 
   1    28   1U    0     4     4  0.00415    0.00415    0.0004932 
   1    28   2     0     2     2  0.00428    0.00428    0.0001233 
   1    29   1     0     1     1  0.00446    0.00446    0.0001849 
   1    30   1     0     1     1  0.00474    0.00474    0.0002774 
   1    31   1U    0     4     4  0.00474    0.00474    0.0004161 
   1    31   2     0     1     1  0.00484    0.00484    0.0001040 
   1    32   1     0     2     2  0.00500    0.00500    0.0001560 
   1    33   1     0     1     1  0.00523    0.00523    0.0002341 
   1    34   1     0     3     3  0.00558    0.00558    0.0003511 
   1    35   1U    0     4     4  0.00558    0.00558    0.0005267 
   1    35   2     0     2     2  0.00572    0.00572    0.0001317 
   1    36   1     0     1     1  0.00591    0.00591    0.0001975 
   1    37   1     0     1     1  0.00621    0.00621    0.0002962 
   1    38   1U    0     4     4  0.00621    0.00621    0.0004444 
   1    38   2     0     1     1  0.00632    0.00632    0.0001111 
   1    39   1     0     2     2  0.00649    0.00649    0.0001666 
   1    40   1     0     1     1  0.00674    0.00674    0.0002500 
   1    41   1     0     3     3  0.00711    0.00711    0.0003749 
   1    42   1U    0     4     4  0.00711    0.00711    0.0005624 
   1    42   2     0     2     2  0.00725    0.00725    0.0001406 
   1    43   1     0     1     1  0.00746    0.00746    0.0002109 
   1    44   1     0     1     1  0.00778    0.00778    0.0003164 
   1    45   1U    0     4     4  0.00778    0.00778    0.0004745 
   1    45   2     0     1     1  0.00790    0.00790    0.0001186 
   1    46   1     0     2     2  0.00808    0.00808    0.0001779 
   1    47   1     0     1     1  0.00834    0.00834    0.0002669 
   1    48   1     0     8     8  0.00874    0.00874    0.0004004 
   1    49   1     0     5     5  0.00914    0.00914    0.0004004 
   1    50   1     0    16    16  0.00954    0.00954    0.0004004 
   1    51   1     0     1     1  0.00984    0.00984    0.0003003 
   1    52   1     0     4     4  0.0101     0.0101     0.0003003 
   1    53   1     0     1     1  0.0106     0.0106     0.0004504 
   1    54   1U    0     4     4  0.0106     0.0106     0.0006756 
   1    54   2     0     1     1  0.0108     0.0108     0.0001689 
   1    55   1     0     1     1  0.0110     0.0110     0.0002534 
   1    56   1     0     5     5  0.0114     0.0114     0.0003801 
   1    57   1     0     5     5  0.0118     0.0118     0.0003801 
   1    58   1     0     8     8  0.0122     0.0122     0.0003801 
   1    59   1     0     1     1  0.0125     0.0125     0.0003801 
   1    60   1     0     5     5  0.0129     0.0129     0.0003801 
   1    61   1     0     7     7  0.0133     0.0133     0.0003801 
   1    62   1     0     6     6  0.0137     0.0137     0.0003801 
   1    63   1     0     1     1  0.0141     0.0141     0.0003801 
   1    64   1     0     5     5  0.0144     0.0144     0.0003801 
   1    65   1     0     4     4  0.0148     0.0148     0.0003801 
   1    66   1     0     1     1  0.0152     0.0152     0.0003801 
   1    67   1U    0     4     4  0.0152     0.0152     0.0005701 
   1    67   2     0     1     1  0.0153     0.0153     0.0001425 
   1    68   1     0     2     2  0.0156     0.0156     0.0002138 
   1    69   1     0     1     1  0.0159     0.0159     0.0003207 
   1    70   1U    0    16    16  0.0159     0.0159     0.0004810 
   1    70   2     0     1     1  0.0160     0.0160     0.0001203 
   1    71   1     0     1     1  0.0162     0.0162     0.0001804 
   1    72   1     0     1     1  0.0164     0.0164     0.0002706 
   1    73   1     0     5     5  0.0169     0.0169     0.0004058 
   1    74   1     0     7     7  0.0173     0.0173     0.0004058 
   1    75   1     0     6     6  0.0177     0.0177     0.0004058 
   1    76   1     0     1     1  0.0181     0.0181     0.0004058 
   1    77   1     0     5     5  0.0185     0.0185     0.0004058 
   1    78   1     0     5     5  0.0189     0.0189     0.0004058 
   1    79   1     0     7     7  0.0193     0.0193     0.0004058 
   1    80   1     0     5     5  0.0197     0.0197     0.0004058 
   1    81   1     0     6     6  0.0201     0.0201     0.0004058 
   1    82   1     0     1     1  0.0205     0.0205     0.0004058 
   1    83   1     0     5     5  0.0209     0.0209     0.0004058 
   1    84   1     0     6     6  0.0213     0.0213     0.0004058 
   1    85   1     0     1     1  0.0217     0.0217     0.0004058 
   1    86   1     0     5     5  0.0221     0.0221     0.0004058 
   1    87   1     0     5     5  0.0225     0.0225     0.0004058 
   1    88   1     0     5     5  0.0229     0.0229     0.0004058 
   1    89   1     0     5     5  0.0233     0.0233     0.0004058 
   1    90   1     0     5     5  0.0238     0.0238     0.0004058 
   1    91   1     0     5     5  0.0242     0.0242     0.0004058 
   1    92   1     0     4     4  0.0246     0.0246     0.0004058 
   1    93   1     0     1     1  0.0250     0.0250     0.0004058 
   1    94   1U    0     4     4  0.0250     0.0250     0.0006088 
   1    94   2     0     1     1  0.0251     0.0251     0.0001522 
   1    95   1     0     2     2  0.0253     0.0253     0.0002283 
   1    96   1     0     1     1  0.0257     0.0257     0.0003424 
   1    97   1     0     4     4  0.0262     0.0262     0.0005136 
   1    98   1U    0     4     4  0.0262     0.0262     0.0007705 
   1    98   2     0     2     2  0.0264     0.0264     0.0001926 
   1    99   1     0     1     1  0.0267     0.0267     0.0002889 
   1   100   1     0     1     1  0.0271     0.0271     0.0004334 
   1   101   1U    0     4     4  0.0271     0.0271     0.0006501 
   1   101   2     0     1     1  0.0273     0.0273     0.0001625 
   1   102   1     0     2     2  0.0275     0.0275     0.0002438 
   1   103   1     0     1     1  0.0279     0.0279     0.0003657 
   1   104   1U    0     4     4  0.0279     0.0279     0.0005485 
   1   104   2     0     1     1  0.0280     0.0280     0.0001371 
   1   105   1     0     2     2  0.0282     0.0282     0.0002057 
   1   106   1     0     1     1  0.0285     0.0285     0.0003085 
   1   107   1     0     1     1  0.0290     0.0290     0.0004628 
   1   108   1U    0     4     4  0.0290     0.0290     0.0006942 
   1   108   2     0     1     1  0.0292     0.0292     0.0001736 
   1   109   1     0     2     2  0.0294     0.0294     0.0002603 
   1   110   1     0     1     1  0.0298     0.0298     0.0003905 
   1   111   1U    0     4     4  0.0298     0.0298     0.0005857 
   1   111   2     0     1     1  0.0300     0.0300     0.0001464 
   1   112   1     0     2     2  0.0302     0.0302     0.0002197 
   1   113   1     0     1     1  0.0305     0.0305     0.0003295 
   1   114   1     0     1     1  0.0310     0.0310     0.0004942 
   1   115   1U    0     4     4  0.0310     0.0310     0.0007413 
   1   115   2     0     1     1  0.0312     0.0312     0.0001853 
   1   116   1     0     2     2  0.0315     0.0315     0.0002780 
   1   117   1     0     2     2  0.0319     0.0319     0.0004170 
   1   118   1U    0     4     4  0.0319     0.0319     0.0006255 
   1   118   2     0     1     1  0.0321     0.0321     0.0001564 
   1   119   1     0     2     2  0.0323     0.0323     0.0002346 
   1   120   1     0     1     1  0.0326     0.0326     0.0003518 
   1   121   1     0     7     7  0.0332     0.0332     0.0005278 
   1   122   1     0    11    11  0.0337     0.0337     0.0005278 
   1   123   1     0     4     4  0.0341     0.0341     0.0003958 
   1   124   1     0     1     1  0.0345     0.0345     0.0003958 
   1   125   1U    0     4     4  0.0345     0.0345     0.0005937 
   1   125   2     0     1     1  0.0346     0.0346     0.0001484 
   1   126   1     0     2     2  0.0349     0.0349     0.0002226 
   1   127   1     0     1     1  0.0352     0.0352     0.0003340 
   1   128   1     0     1     1  0.0357     0.0357     0.0005010 
   1   129   1U    0     4     4  0.0357     0.0357     0.0007514 
   1   129   2     0     1     1  0.0359     0.0359     0.0001879 
   1   130   1     0     2     2  0.0362     0.0362     0.0002818 
   1   131   1     0     1     1  0.0366     0.0366     0.0004227 
   1   132   1U    0     4     4  0.0366     0.0366     0.0006340 
   1   132   2     0     1     1  0.0367     0.0367     0.0001585 
   1   133   1     0     2     2  0.0370     0.0370     0.0002378 
   1   134   1     0     1     1  0.0373     0.0373     0.0003566 
   1   135   1     0     1     1  0.0379     0.0379     0.0005350 
   1   136   1U    0     4     4  0.0379     0.0379     0.0008024 
   1   136   2     0     1     1  0.0381     0.0381     0.0002006 
   1   137   1     0     3     3  0.0384     0.0384     0.0003009 
   1   138   1     0     3     3  0.0388     0.0388     0.0004514 
   1   139   1U    0     4     4  0.0388     0.0388     0.0006771 
   1   139   2     0     2     2  0.0390     0.0390     0.0001693 
   1   140   1     0     1     1  0.0393     0.0393     0.0002539 
   1   141   1     0     1     1  0.0396     0.0396     0.0003808 
   1   142   1U    0    16    16  0.0396     0.0396     0.0005713 
   1   142   2     0     1     1  0.0398     0.0398     0.0001428 
   1   143   1     0     2     2  0.0400     0.0400     0.0002142 
   1   144   1     0     1     1  0.0403     0.0403     0.0003213 
   1   145   1     0     1     1  0.0408     0.0408     0.0004820 
   1   146   1U    0     4     4  0.0408     0.0408     0.0007230 
   1   146   2     0     1     1  0.0410     0.0410     0.0001808 
   1   147   1     0     2     2  0.0412     0.0412     0.0002711 
   1   148   1     0     1     1  0.0417     0.0417     0.0004067 
   1   149   1U    0     4     4  0.0417     0.0417     0.0006100 
   1   149   2     0     1     1  0.0418     0.0418     0.0001525 
   1   150   1     0     1     1  0.0420     0.0420     0.0002288 
   1   151   1     0     2     2  0.0424     0.0424     0.0003431 
   1   152   1     0     1     1  0.0429     0.0429     0.0005147 
   1   153   1U    0     4     4  0.0429     0.0429     0.0007721 
   1   153   2     0     1     1  0.0431     0.0431     0.0001930 
   1   154   1     0     3     3  0.0434     0.0434     0.0002895 
   1   155   1     0     3     3  0.0438     0.0438     0.0004343 
   1   156   1U    0     4     4  0.0438     0.0438     0.0006514 
   1   156   2     0     1     1  0.0440     0.0440     0.0001629 
   1   157   1     0     2     2  0.0442     0.0442     0.0002443 
   1   158   1     0     1     1  0.0446     0.0446     0.0003664 
   1   159   1     0     4     4  0.0451     0.0451     0.0005497 
   1   160   1U    0     4     4  0.0451     0.0451     0.0008245 
   1   160   2     0     2     2  0.0453     0.0453     0.0002061 
   1   161   1     0     1     1  0.0456     0.0456     0.0003092 
   1   162   1     0     1     1  0.0461     0.0461     0.0004638 
   1   163   1U    0     4     4  0.0461     0.0461     0.0006957 
   1   163   2     0     1     1  0.0463     0.0463     0.0001739 
   1   164   1     0     2     2  0.0465     0.0465     0.0002609 
   1   165   1     0     1     1  0.0469     0.0469     0.0003913 
   1   166   1U    0    16    16  0.0469     0.0469     0.0005870 
   1   166   2     0     1     1  0.0471     0.0471     0.0001467 
   1   167   1     0     2     2  0.0473     0.0473     0.0002201 
   1   168   1     0     1     1  0.0476     0.0476     0.0003302 
   1   169   1     0     1     1  0.0481     0.0481     0.0004953 
   1   170   1U    0     4     4  0.0481     0.0481     0.0007429 
   1   170   2     0     1     1  0.0483     0.0483     0.0001857 
   1   171   1     0     2     2  0.0486     0.0486     0.0002786 
   1   172   1     0     1     1  0.0490     0.0490     0.0004179 
   1   173   1U    0     4     4  0.0490     0.0490     0.0006268 
   1   173   2     0     1     1  0.0492     0.0492     0.0001567 
   1   174   1     0     1     1  0.0494     0.0494     0.0002351 
   1   175   1     0     2     2  0.0498     0.0498     0.0003526 
   1   176   1     0     1     1  0.0503     0.0503     0.0005289 
   1   177   1U    0     4     4  0.0503     0.0503     0.0007933 
   1   177   2     0     1     1  0.0505     0.0505     0.0001983 
   1   178   1     0     3     3  0.0508     0.0508     0.0002975 
   1   179   1     0     2     2  0.0512     0.0512     0.0004462 
   1   180   1     0     1     1  0.0519     0.0519     0.0006693 
   1   181   1U    0     4     4  0.0519     0.0519     0.001000  
   1   181   2     0     2     2  0.0521     0.0521     0.0002500 
   1   182   1     0     1     1  0.0525     0.0525     0.0003750 
   1   183   1     0     1     1  0.0531     0.0531     0.0005625 
   1   184   1     0     1     1  0.0539     0.0539     0.0008438 
   1   185   1U    0     4     4  0.0539     0.0539     0.001000  
   1   185   2     0     2     2  0.0542     0.0542     0.0002500 
   1   186   1     0     1     1  0.0546     0.0546     0.0003750 
   1   187   1     0     1     1  0.0551     0.0551     0.0005625 
   1   188   1U    0     4     4  0.0551     0.0551     0.0008438 
   1   188   2     0     1     1  0.0553     0.0553     0.0002109 
   1   189   1     0     3     3  0.0556     0.0556     0.0003164 
   1   190   1     0     3     3  0.0561     0.0561     0.0004746 
   1   191   1U    0     4     4  0.0561     0.0561     0.0007119 
   1   191   2     0     1     1  0.0563     0.0563     0.0001780 
   1   192   1     0     2     2  0.0566     0.0566     0.0002670 
   1   193   1     0     1     1  0.0570     0.0570     0.0004005 
   1   194   1U    0    16    16  0.0570     0.0570     0.0006007 
   1   194   2     0     1     1  0.0571     0.0571     0.0001502 
   1   195   1     0     1     1  0.0573     0.0573     0.0002253 
   1   196   1     0     1     1  0.0577     0.0577     0.0003379 
   1   197   1     0     4     4  0.0582     0.0582     0.0005068 
   1   198   1     0     1     1  0.0589     0.0589     0.0007602 
   1   199   1U    0     4     4  0.0589     0.0589     0.001000  
   1   199   2     0     1     1  0.0592     0.0592     0.0002500 
   1   200   1     0     3     3  0.0596     0.0596     0.0003750 
   1   201   1     0    12    12  0.0601     0.0601     0.0005625 
   1   202   1     0     2     2  0.0606     0.0606     0.0004219 
   1   203   1     0     1     1  0.0610     0.0610     0.0004219 
   1   204   1U    0     4     4  0.0610     0.0610     0.0006328 
   1   204   2     0     1     1  0.0611     0.0611     0.0001582 
   1   205   1     0     2     2  0.0614     0.0614     0.0002373 
   1   206   1     0     1     1  0.0617     0.0617     0.0003560 
   1   207   1     0     1     1  0.0623     0.0623     0.0005339 
   1   208   1U    0     4     4  0.0623     0.0623     0.0008009 
   1   208   2     0     1     1  0.0625     0.0625     0.0002002 
   1   209   1     0     2     2  0.0628     0.0628     0.0003003 
   1   210   1     0     1     1  0.0632     0.0632     0.0004505 
   1   211   1U    0     4     4  0.0632     0.0632     0.0006758 
   1   211   2     0     1     1  0.0634     0.0634     0.0001689 
   1   212   1     0     1     1  0.0636     0.0636     0.0002534 
   1   213   1     0     2     2  0.0640     0.0640     0.0003801 
   1   214   1     0     4     4  0.0646     0.0646     0.0005702 
   1   215   1U    0     4     4  0.0646     0.0646     0.0008553 
   1   215   2     0     1     1  0.0648     0.0648     0.0002138 
   1   216   1     0     3     3  0.0651     0.0651     0.0003207 
   1   217   1     0     4     4  0.0656     0.0656     0.0004811 
   1   218   1U    0     4     4  0.0656     0.0656     0.0007216 
   1   218   2     0     1     1  0.0658     0.0658     0.0001804 
   1   219   1     0     2     2  0.0660     0.0660     0.0002706 
   1   220   1     0     1     1  0.0665     0.0665     0.0004059 
   1   221   1     0    14    14  0.0671     0.0671     0.0006089 
   1   222   1     0     3     3  0.0675     0.0675     0.0004567 
   1   223   1     0     4     4  0.0680     0.0680     0.0004567 
   1   224   1     0     1     1  0.0687     0.0687     0.0006850 
   1   225   1U    0     4     4  0.0687     0.0687     0.001000  
   1   225   2     0     1     1  0.0689     0.0689     0.0002500 
   1   226   1     0     1     1  0.0693     0.0693     0.0003750 
   1   227   1     0     7     7  0.0699     0.0699     0.0005625 
   1   228   1     0     7     7  0.0704     0.0704     0.0005625 
   1   229   1     0    11    11  0.0710     0.0710     0.0005625 
   1   230   1     0     3     3  0.0714     0.0714     0.0004219 
   1   231   1     0     4     4  0.0718     0.0718     0.0004219 
   1   232   1     0     1     1  0.0725     0.0725     0.0006328 
   1   233   1U    0     4     4  0.0725     0.0725     0.0009492 
   1   233   2     0     1     1  0.0727     0.0727     0.0002373 
   1   234   1     0     3     3  0.0730     0.0730     0.0003560 
   1   235   1     0     5     5  0.0736     0.0736     0.0005339 
   1   236   1     0     7     7  0.0741     0.0741     0.0005339 
   1   237   1     0     6     6  0.0746     0.0746     0.0005339 
   1   238   1     0     1     1  0.0752     0.0752     0.0005339 
   1   239   1     0     6     6  0.0757     0.0757     0.0005339 
   1   240   1     0     4     4  0.0762     0.0762     0.0005339 
   1   241   1     0     2     2  0.0768     0.0768     0.0005339 
   1   242   1U    0     4     4  0.0768     0.0768     0.0008009 
   1   242   2     0     1     1  0.0770     0.0770     0.0002002 
   1   243   1     0     2     2  0.0773     0.0773     0.0003003 
   1   244   1     0     1     1  0.0777     0.0777     0.0004505 
   1   245   1U    0     4     4  0.0777     0.0777     0.0006758 
   1   245   2     0     1     1  0.0779     0.0779     0.0001689 
   1   246   1     0     1     1  0.0782     0.0782     0.0002534 
   1   247   1     0     2     2  0.0785     0.0785     0.0003801 
   1   248   1     0     4     4  0.0791     0.0791     0.0005702 
   1   249   1U    0     4     4  0.0791     0.0791     0.0008553 
   1   249   2     0     1     1  0.0793     0.0793     0.0002138 
   1   250   1     0     2     2  0.0796     0.0796     0.0003207 
   1   251   1     0     1     1  0.0801     0.0801     0.0004811 
   1   252   1U    0     4     4  0.0801     0.0801     0.0007216 
   1   252   2     0     1     1  0.0803     0.0803     0.0001804 
   1   253   1     0     2     2  0.0806     0.0806     0.0002706 
   1   254   1     0     1     1  0.0810     0.0810     0.0004059 
   1   255   1     0     3     3  0.0816     0.0816     0.0006089 
   1   256   1U    0     4     4  0.0816     0.0816     0.0009133 
   1   256   2     0     1     1  0.0818     0.0818     0.0002283 
   1   257   1     0     3     3  0.0822     0.0822     0.0003425 
   1   258   1     0     3     3  0.0827     0.0827     0.0005137 
   1   259   1U    0     4     4  0.0827     0.0827     0.0007706 
   1   259   2     0     2     2  0.0829     0.0829     0.0001927 
   1   260   1     0     1     1  0.0832     0.0832     0.0002890 
   1   261   1     0     1     1  0.0836     0.0836     0.0004335 
   1   262   1U    0     4     4  0.0836     0.0836     0.0006502 
   1   262   2     0     1     1  0.0838     0.0838     0.0001625 
   1   263   1     0     2     2  0.0840     0.0840     0.0002438 
   1   264   1     0     1     1  0.0844     0.0844     0.0003657 
   1   265   1     0     1     1  0.0849     0.0849     0.0005486 
   1   266   1U    0     4     4  0.0849     0.0849     0.0008229 
   1   266   2     0     1     1  0.0851     0.0851     0.0002057 
   1   267   1     0     2     2  0.0854     0.0854     0.0003086 
   1   268   1     0     1     1  0.0859     0.0859     0.0004629 
   1   269   1U    0     4     4  0.0859     0.0859     0.0006943 
   1   269   2     0     1     1  0.0861     0.0861     0.0001736 
   1   270   1     0     1     1  0.0863     0.0863     0.0002604 
   1   271   1     0     2     2  0.0867     0.0867     0.0003906 
   1   272   1     0     4     4  0.0873     0.0873     0.0005858 
   1   273   1U    0     4     4  0.0873     0.0873     0.0008788 
   1   273   2     0     1     1  0.0875     0.0875     0.0002197 
   1   274   1     0     2     2  0.0878     0.0878     0.0003295 
   1   275   1     0     1     1  0.0883     0.0883     0.0004943 
   1   276   1U    0     4     4  0.0883     0.0883     0.0007415 
   1   276   2     0     1     1  0.0885     0.0885     0.0001854 
   1   277   1     0     2     2  0.0888     0.0888     0.0002780 
   1   278   1     0     1     1  0.0892     0.0892     0.0004171 
   1   279   1     0     8     8  0.0898     0.0898     0.0006256 
   1   280   1U    0    16    16  0.0898     0.0898     0.0006256 
   1   280   2     0     1     1  0.0900     0.0900     0.0001564 
   1   281   1     0     2     2  0.0902     0.0902     0.0001564 
   1   282   1     0     1     1  0.0904     0.0904     0.0002346 
   1   283   1     0     1     1  0.0907     0.0907     0.0003519 
   1   284   1     0     1     1  0.0913     0.0913     0.0005279 
   1   285   1     0     1     1  0.0921     0.0921     0.0007918 
   1   286   1U    0     4     4  0.0921     0.0921     0.001000  
   1   286   2     0     1     1  0.0923     0.0923     0.0002500 
   1   287   1     0     1     1  0.0927     0.0927     0.0003750 
   1   288   1     0     4     4  0.0933     0.0933     0.0005625 
   1   289   1U    0     4     4  0.0933     0.0933     0.0008438 
   1   289   2     0     1     1  0.0935     0.0935     0.0002109 
   1   290   1     0     2     2  0.0938     0.0938     0.0003164 
   1   291   1     0     1     1  0.0943     0.0943     0.0004746 
   1   292   1U    0     4     4  0.0943     0.0943     0.0007119 
   1   292   2     0     1     1  0.0944     0.0944     0.0001780 
   1   293   1     0     1     1  0.0947     0.0947     0.0002670 
   1   294   1     0     3     3  0.0951     0.0951     0.0004005 
   1   295   1     0     8     8  0.0957     0.0957     0.0006007 
   1   296   1     0     1     1  0.0963     0.0963     0.0006007 
   1   297   1     0    14    14  0.0969     0.0969     0.0006007 
   1   298   1     0     2     2  0.0974     0.0974     0.0004505 
   1   299   1     0     1     1  0.0978     0.0978     0.0004505 
   1   300   1U    0     4     4  0.0978     0.0978     0.0006758 
   1   300   2     0     1     1  0.0980     0.0980     0.0001689 
   1   301   1     0     2     2  0.0982     0.0982     0.0002534 
   1   302   1     0     1     1  0.0986     0.0986     0.0003801 
   1   303   1     0     1     1  0.0992     0.0992     0.0005702 
   1   304   1U    0     4     4  0.0992     0.0992     0.0008553 
   1   304   2     0     1     1  0.0994     0.0994     0.0002138 
   1   305   1     0     2     2  0.0997     0.0997     0.0003207 
   1   306   1     0     1     1  0.100      0.100      0.0004811 
   1   307   1U    0     4     4  0.100      0.100      0.0007216 
   1   307   2     0     1     1  0.100      0.100      0.0001804 
   1   308   1     0     1     1  0.101      0.101      0.0002706 
   1   309   1     0     2     2  0.101      0.101      0.0004059 
   1   310   1     0     4     4  0.102      0.102      0.0006089 
   1   311   1U    0     4     4  0.102      0.102      0.0009133 
   1   311   2     0     1     1  0.102      0.102      0.0002283 
   1   312   1     0     3     3  0.102      0.102      0.0003425 
   1   313   1     0     4     4  0.103      0.103      0.0005137 
   1   314   1U    0     4     4  0.103      0.103      0.0007706 
   1   314   2     0     1     1  0.103      0.103      0.0001927 
   1   315   1     0     2     2  0.103      0.103      0.0002890 
   1   316   1     0     1     1  0.104      0.104      0.0004335 
   1   317   1U    0    16    16  0.104      0.104      0.0006502 
   1   317   2     0     1     1  0.104      0.104      0.0001625 
   1   318   1     0     1     1  0.104      0.104      0.0002438 
   1   319   1     0     1     1  0.104      0.104      0.0003657 
   1   320   1     0     4     4  0.105      0.105      0.0005486 
   1   321   1     0     1     1  0.106      0.106      0.0008229 
   1   322   1U    0     4     4  0.106      0.106      0.001000  
   1   322   2     0     1     1  0.106      0.106      0.0002500 
   1   323   1     0     2     2  0.106      0.106      0.0003750 
   1   324   1     0     1     1  0.107      0.107      0.0005625 
   1   325   1U    0     4     4  0.107      0.107      0.0008438 
   1   325   2     0     1     1  0.107      0.107      0.0002109 
   1   326   1     0     2     2  0.108      0.108      0.0003164 
   1   327   1     0     1     1  0.108      0.108      0.0004746 
   1   328   1U    0     4     4  0.108      0.108      0.0007119 
   1   328   2     0     1     1  0.108      0.108      0.0001780 
   1   329   1     0     1     1  0.108      0.108      0.0002670 
   1   330   1     0     1     1  0.109      0.109      0.0004005 
   1   331   1     0     2     2  0.109      0.109      0.0006007 
   1   332   1     0     1     1  0.110      0.110      0.0009010 
   1   333   1U    0     4     4  0.110      0.110      0.001000  
   1   333   2     0     1     1  0.111      0.111      0.0002500 
   1   334   1     0     3     3  0.111      0.111      0.0003750 
   1   335   1     0     7     7  0.112      0.112      0.0005625 
   1   336   1     0     4     4  0.112      0.112      0.0005625 
   1   337   1     0     1     1  0.113      0.113      0.0005625 
   1   338   1U    0     4     4  0.113      0.113      0.0008438 
   1   338   2     0     1     1  0.113      0.113      0.0002109 
   1   339   1     0     2     2  0.113      0.113      0.0003164 
   1   340   1     0     1     1  0.114      0.114      0.0004746 
   1   341   1U    0     4     4  0.114      0.114      0.0007119 
   1   341   2     0     1     1  0.114      0.114      0.0001780 
   1   342   1     0     1     1  0.114      0.114      0.0002670 
   1   343   1     0     1     1  0.114      0.114      0.0004005 
   1   344   1     0     5     5  0.115      0.115      0.0006007 
   1   345   1     0    11    11  0.116      0.116      0.0006007 
   1   346   1     0     3     3  0.116      0.116      0.0004505 
   1   347   1     0     4     4  0.117      0.117      0.0004505 
   1   348   1     0     1     1  0.117      0.117      0.0006758 
   1   349   1U    0     4     4  0.117      0.117      0.001000  
   1   349   2     0     2     2  0.118      0.118      0.0002500 
   1   350   1     0     1     1  0.118      0.118      0.0003750 
   1   351   1     0     1     1  0.118      0.118      0.0005625 
   1   352   1U    0     4     4  0.118      0.118      0.0008438 
   1   352   2     0     1     1  0.119      0.119      0.0002109 
   1   353   1     0     2     2  0.119      0.119      0.0003164 
   1   354   1     0     1     1  0.119      0.119      0.0004746 
   1   355   1U    0     4     4  0.119      0.119      0.0007119 
   1   355   2     0     1     1  0.120      0.120      0.0001780 
   1   356   1     0     1     1  0.120      0.120      0.0002670 
   1   357   1     0     2     2  0.120      0.120      0.0004005 
   1   358   1     0     2     2  0.121      0.121      0.0006007 
   1   359   1U    0     4     4  0.121      0.121      0.0009010 
   1   359   2     0     1     1  0.121      0.121      0.0002253 
   1   360   1     0     3     3  0.121      0.121      0.0003379 
   1   361   1     0     4     4  0.122      0.122      0.0005068 
   1   362   1U    0     4     4  0.122      0.122      0.0007602 
   1   362   2     0     1     1  0.122      0.122      0.0001901 
   1   363   1     0     2     2  0.122      0.122      0.0002851 
   1   364   1     0     1     1  0.123      0.123      0.0004276 
   1   365   1     0     6     6  0.124      0.124      0.0006414 
   1   366   1U    0    16    16  0.124      0.124      0.0006414 
   1   366   2     0     1     1  0.124      0.124      0.0001604 
   1   367   1     0     2     2  0.124      0.124      0.0001604 
   1   368   1     0     1     1  0.124      0.124      0.0002405 
   1   369   1     0     1     1  0.124      0.124      0.0003608 
   1   370   1     0     1     1  0.125      0.125      0.0005412 
   1   371   1     0     1     1  0.126      0.126      0.0008118 
   1   372   1U    0     4     4  0.126      0.126      0.001000  
   1   372   2     0     1     1  0.126      0.126      0.0002500 
   1   373   1     0     1     1  0.126      0.126      0.0003750 
   1   374   1     0     3     3  0.127      0.127      0.0005625 
   1   375   1U    0     4     4  0.127      0.127      0.0008438 
   1   375   2     0     1     1  0.127      0.127      0.0002109 
   1   376   1     0     2     2  0.128      0.128      0.0003164 
   1   377   1     0     1     1  0.128      0.128      0.0004746 
   1   378   1U    0     4     4  0.128      0.128      0.0007119 
   1   378   2     0     1     1  0.128      0.128      0.0001780 
   1   379   1     0     2     2  0.128      0.128      0.0002670 
   1   380   1     0     1     1  0.129      0.129      0.0004005 
   1   381   1     0     3     3  0.129      0.129      0.0006007 
   1   382   1U    0     4     4  0.129      0.129      0.0009010 
   1   382   2     0     2     2  0.130      0.130      0.0002253 
   1   383   1     0     1     1  0.130      0.130      0.0003379 
   1   384   1     0     1     1  0.131      0.131      0.0005068 
   1   385   1U    0     4     4  0.131      0.131      0.0007602 
   1   385   2     0     1     1  0.131      0.131      0.0001901 
   1   386   1     0     2     2  0.131      0.131      0.0002851 
   1   387   1     0     1     1  0.131      0.131      0.0004276 
   1   388   1     0     5     5  0.132      0.132      0.0006414 
   1   389   1U    0    16    16  0.132      0.132      0.0006414 
   1   389   2     0     1     1  0.132      0.132      0.0001604 
   1   390   1     0     2     2  0.132      0.132      0.0001604 
   1   391   1     0     1     1  0.133      0.133      0.0002405 
   1   392   1     0     1     1  0.133      0.133      0.0003608 
   1   393   1     0     1     1  0.134      0.134      0.0005412 
   1   394   1     0     1     1  0.134      0.134      0.0008118 
   1   395   1U    0     4     4  0.134      0.134      0.001000  
   1   395   2     0     1     1  0.135      0.135      0.0002500 
   1   396   1     0     1     1  0.135      0.135      0.0003750 
   1   397   1     0     6     6  0.136      0.136      0.0005625 
   1   398   1     0     3     3  0.136      0.136      0.0005625 
   1   399   1     0     5     5  0.137      0.137      0.0005625 
   1   400   1     0     7     7  0.137      0.137      0.0005625 
   1   401   1     0     5     5  0.138      0.138      0.0005625 
   1   402   1     0     7     7  0.138      0.138      0.0005625 
   1   403   1     0     5     5  0.139      0.139      0.0005625 
   1   404   1     0     7     7  0.139      0.139      0.0005625 
   1   405   1     0     5     5  0.140      0.140      0.0005625 
   1   406   1     0     7     7  0.141      0.141      0.0005625 
   1   407   1     0     5     5  0.141      0.141      0.0005625 
   1   408   1     0     7     7  0.142      0.142      0.0005625 
   1   409   1     0     5     5  0.142      0.142      0.0005625 
   1   410   1     0     7     7  0.143      0.143      0.0005625 
   1   411   1     0     5     5  0.143      0.143      0.0005625 
   1   412   1     0     6     6  0.144      0.144      0.0005625 
   1   413   1     0     3     3  0.145      0.145      0.0005625 
   1   414   1     0     5     5  0.145      0.145      0.0005625 
   1   415   1     0     7     7  0.146      0.146      0.0005625 
   1   416   1     0     5     5  0.146      0.146      0.0005625 
   1   417   1     0     6     6  0.147      0.147      0.0005625 
   1   418   1     0     3     3  0.147      0.147      0.0005625 
   1   419   1     0     5     5  0.148      0.148      0.0005625 
   1   420   1     0     6     6  0.148      0.148      0.0005625 
   1   421   1     0     3     3  0.149      0.149      0.0005625 
   1   422   1     0     5     5  0.150      0.150      0.0005625 
   1   423   1     0     6     6  0.150      0.150      0.0005625 
   1   424   1     0     3     3  0.151      0.151      0.0005625 
   1   425   1     0     5     5  0.151      0.151      0.0005625 
   1   426   1     0     6     6  0.152      0.152      0.0005625 
   1   427   1     0     3     3  0.152      0.152      0.0005625 
   1   428   1     0     5     5  0.153      0.153      0.0005625 
   1   429   1     0     6     6  0.154      0.154      0.0005625 
   1   430   1     0     2     2  0.154      0.154      0.0005625 
   1   431   1     0     3     3  0.155      0.155      0.0005625 
   1   432   1U    0     4     4  0.155      0.155      0.0008438 
   1   432   2     0     1     1  0.155      0.155      0.0002109 
   1   433   1     0     2     2  0.155      0.155      0.0003164 
   1   434   1     0     1     1  0.156      0.156      0.0004746 
   1   435   1U    0     4     4  0.156      0.156      0.0007119 
   1   435   2     0     1     1  0.156      0.156      0.0001780 
   1   436   1     0     2     2  0.156      0.156      0.0002670 
   1   437   1     0     1     1  0.156      0.156      0.0004005 
   1   438   1     0     1     1  0.157      0.157      0.0006007 
   1   439   1U    0     4     4  0.157      0.157      0.0009010 
   1   439   2     0     1     1  0.157      0.157      0.0002253 
   1   440   1     0     2     2  0.158      0.158      0.0003379 
   1   441   1     0     1     1  0.158      0.158      0.0005068 
   1   442   1U    0     4     4  0.158      0.158      0.0007602 
   1   442   2     0     1     1  0.158      0.158      0.0001901 
   1   443   1     0     1     1  0.159      0.159      0.0002851 
   1   444   1     0     3     3  0.159      0.159      0.0004276 
   1   445   1     0     7     7  0.160      0.160      0.0006414 
   1   446   1     0    14    14  0.160      0.160      0.0006414 
   1   447   1     0     2     2  0.161      0.161      0.0004811 
   1   448   1     0     1     1  0.161      0.161      0.0004811 
   1   449   1U    0     4     4  0.161      0.161      0.0007216 
   1   449   2     0     1     1  0.161      0.161      0.0001804 
   1   450   1     0     1     1  0.162      0.162      0.0002706 
   1   451   1     0     2     2  0.162      0.162      0.0004059 
   1   452   1     0     1     1  0.163      0.163      0.0006089 
   1   453   1U    0     4     4  0.163      0.163      0.0009133 
   1   453   2     0     1     1  0.163      0.163      0.0002283 
   1   454   1     0     1     1  0.163      0.163      0.0003425 
   1   455   1     0     3     3  0.164      0.164      0.0005137 
   1   456   1U    0     4     4  0.164      0.164      0.0007706 
   1   456   2     0     1     1  0.164      0.164      0.0001927 
   1   457   1     0     2     2  0.164      0.164      0.0002890 
   1   458   1     0     1     1  0.165      0.165      0.0004335 
   1   459   1     0     4     4  0.165      0.165      0.0006502 
   1   460   1     0     1     1  0.166      0.166      0.0009753 
   1   461   1U    0     4     4  0.166      0.166      0.001000  
   1   461   2     0     2     2  0.167      0.167      0.0002500 
   1   462   1     0     1     1  0.167      0.167      0.0003750 
   1   463   1     0     1     1  0.168      0.168      0.0005625 
   1   464   1U    0     4     4  0.168      0.168      0.0008438 
   1   464   2     0     1     1  0.168      0.168      0.0002109 
   1   465   1     0     2     2  0.168      0.168      0.0003164 
   1   466   1     0     1     1  0.169      0.169      0.0004746 
   1   467   1U    0     4     4  0.169      0.169      0.0007119 
   1   467   2     0     1     1  0.169      0.169      0.0001780 
   1   468   1     0     2     2  0.169      0.169      0.0002670 
   1   469   1     0     1     1  0.169      0.169      0.0004005 
   1   470   1     0     1     1  0.170      0.170      0.0006007 
   1   471   1U    0     4     4  0.170      0.170      0.0009010 
   1   471   2     0     1     1  0.170      0.170      0.0002253 
   1   472   1     0     2     2  0.171      0.171      0.0003379 
   1   473   1     0     1     1  0.171      0.171      0.0005068 
   1   474   1U    0     4     4  0.171      0.171      0.0007602 
   1   474   2     0     1     1  0.171      0.171      0.0001901 
   1   475   1     0     1     1  0.172      0.172      0.0002851 
   1   476   1     0     2     2  0.172      0.172      0.0004276 
   1   477   1     0     3     3  0.173      0.173      0.0006414 
   1   478   1U    0     4     4  0.173      0.173      0.0009622 
   1   478   2     0     1     1  0.173      0.173      0.0002405 
   1   479   1     0     3     3  0.173      0.173      0.0003608 
   1   480   1     0     3     3  0.174      0.174      0.0005412 
   1   481   1U    0     4     4  0.174      0.174      0.0008118 
   1   481   2     0     1     1  0.174      0.174      0.0002030 
   1   482   1     0     2     2  0.174      0.174      0.0003044 
   1   483   1     0     1     1  0.175      0.175      0.0004567 
   1   484   1     0    16    16  0.175      0.175      0.0006850 
   1   485   1     0     3     3  0.176      0.176      0.0005137 
   1   486   1     0     4     4  0.176      0.176      0.0005137 
   1   487   1     0     1     1  0.177      0.177      0.0007706 
   1   488   1U    0     4     4  0.177      0.177      0.001000  
   1   488   2     0     1     1  0.177      0.177      0.0002500 
   1   489   1     0     1     1  0.178      0.178      0.0003750 
   1   490   1     0     1     1  0.178      0.178      0.0005625 
   1   491   1     0     1     1  0.179      0.179      0.0008438 
   1   492   1U    0     4     4  0.179      0.179      0.001000  
   1   492   2     0     1     1  0.180      0.180      0.0002500 
   1   493   1     0     2     2  0.180      0.180      0.0003750 
   1   494   1     0     1     1  0.180      0.180      0.0005625 
   1   495   1U    0     4     4  0.180      0.180      0.0008438 
   1   495   2     0     1     1  0.181      0.181      0.0002109 
   1   496   1     0     1     1  0.181      0.181      0.0003164 
   1   497   1     0     3     3  0.181      0.181      0.0004746 
   1   498   1U    0     4     4  0.181      0.181      0.0007119 
   1   498   2     0     1     1  0.182      0.182      0.0001780 
   1   499   1     0     2     2  0.182      0.182      0.0002670 
   1   500   1     0     1     1  0.182      0.182      0.0004005 
   1   501   1     0     1     1  0.183      0.183      0.0006007 
   1   502   1U    0     4     4  0.183      0.183      0.0009010 
   1   502   2     0     1     1  0.183      0.183      0.0002253 
   1   503   1     0     2     2  0.183      0.183      0.0003379 
   1   504   1     0     1     1  0.184      0.184      0.0005068 
   1   505   1U    0     4     4  0.184      0.184      0.0007602 
   1   505   2     0     1     1  0.184      0.184      0.0001901 
   1   506   1     0     1     1  0.184      0.184      0.0002851 
   1   507   1     0     2     2  0.185      0.185      0.0004276 
   1   508   1     0     3     3  0.186      0.186      0.0006414 
   1   509   1U    0     4     4  0.186      0.186      0.0009622 
   1   509   2     0     1     1  0.186      0.186      0.0002405 
   1   510   1     0     3     3  0.186      0.186      0.0003608 
   1   511   1     0     3     3  0.187      0.187      0.0005412 
   1   512   1U    0     4     4  0.187      0.187      0.0008118 
   1   512   2     0     1     1  0.187      0.187      0.0002030 
   1   513   1     0     2     2  0.187      0.187      0.0003044 
   1   514   1     0     1     1  0.188      0.188      0.0004567 
   1   515   1     0    10    10  0.188      0.188      0.0006850 
   1   516   1U    0    16    16  0.188      0.188      0.0006850 
   1   516   2     0     1     1  0.188      0.188      0.0001712 
   1   517   1     0     2     2  0.189      0.189      0.0001712 
   1   518   1     0     1     1  0.189      0.189      0.0002569 
   1   519   1     0     1     1  0.189      0.189      0.0003853 
   1   520   1     0     1     1  0.190      0.190      0.0005780 
   1   521   1     0     1     1  0.191      0.191      0.0008669 
   1   522   1U    0     4     4  0.191      0.191      0.001000  
   1   522   2     0     1     1  0.191      0.191      0.0002500 
   1   523   1     0     1     1  0.191      0.191      0.0003750 
   1   524   1     0     1     1  0.192      0.192      0.0005625 
   1   525   1U    0     4     4  0.192      0.192      0.0008438 
   1   525   2     0     1     1  0.192      0.192      0.0002109 
   1   526   1     0     2     2  0.192      0.192      0.0003164 
   1   527   1     0     1     1  0.193      0.193      0.0004746 
   1   528   1U    0    16    16  0.193      0.193      0.0007119 
   1   528   2     0     1     1  0.193      0.193      0.0001780 
   1   529   1     0     2     2  0.193      0.193      0.0002670 
   1   530   1     0     1     1  0.194      0.194      0.0004005 
   1   531   1     0     1     1  0.194      0.194      0.0006007 
   1   532   1U    0     4     4  0.194      0.194      0.0009010 
   1   532   2     0     1     1  0.195      0.195      0.0002253 
   1   533   1     0     2     2  0.195      0.195      0.0003379 
   1   534   1     0     1     1  0.195      0.195      0.0005068 
   1   535   1U    0     4     4  0.195      0.195      0.0007602 
   1   535   2     0     1     1  0.196      0.196      0.0001901 
   1   536   1     0     1     1  0.196      0.196      0.0002851 
   1   537   1     0     2     2  0.196      0.196      0.0004276 
   1   538   1     0     2     2  0.197      0.197      0.0006414 
   1   539   1U    0     4     4  0.197      0.197      0.0009622 
   1   539   2     0     1     1  0.197      0.197      0.0002405 
   1   540   1     0     3     3  0.198      0.198      0.0003608 
   1   541   1     0     4     4  0.198      0.198      0.0005412 
   1   542   1U    0     4     4  0.198      0.198      0.0008118 
   1   542   2     0     1     1  0.198      0.198      0.0002030 
   1   543   1     0     2     2  0.199      0.199      0.0003044 
   1   544   1     0     1     1  0.199      0.199      0.0004567 
   1   545   1     0     6     6  0.200      0.200      0.0006850 
   1   546   1U    0    16    16  0.200      0.200      0.0006850 
   1   546   2     0     1     1  0.200      0.200      0.0001712 
   1   547   1     0     2     2  0.200      0.200      0.0001712 
   1   548   1     0     1     1  0.200      0.200      0.0002569 
   1   549   1     0     1     1  0.201      0.201      0.0003853 
   1   550   1     0     1     1  0.201      0.201      0.0005780 
   1   551   1     0     1     1  0.202      0.202      0.0008669 
   1   552   1U    0     4     4  0.202      0.202      0.001000  
   1   552   2     0     1     1  0.202      0.202      0.0002500 
   1   553   1     0     1     1  0.203      0.203      0.0003750 
   1   554   1     0     2     2  0.203      0.203      0.0005625 
   1   555   1U    0     4     4  0.203      0.203      0.0008438 
   1   555   2     0     1     1  0.204      0.204      0.0002109 
   1   556   1     0     2     2  0.204      0.204      0.0003164 
   1   557   1     0     1     1  0.204      0.204      0.0004746 
   1   558   1U    0    16    16  0.204      0.204      0.0007119 
   1   558   2     0     1     1  0.205      0.205      0.0001780 
   1   559   1     0     1     1  0.205      0.205      0.0002670 
   1   560   1     0     1     1  0.205      0.205      0.0004005 
   1   561   1     0     3     3  0.206      0.206      0.0006007 
   1   562   1U    0     4     4  0.206      0.206      0.0009010 
   1   562   2     0     1     1  0.206      0.206      0.0002253 
   1   563   1     0     2     2  0.206      0.206      0.0003379 
   1   564   1     0     1     1  0.207      0.207      0.0005068 
   1   565   1U    0     4     4  0.207      0.207      0.0007602 
   1   565   2     0     1     1  0.207      0.207      0.0001901 
   1   566   1     0     1     1  0.207      0.207      0.0002851 
   1   567   1     0     2     2  0.208      0.208      0.0004276 
   1   568   1     0     3     3  0.208      0.208      0.0006414 
   1   569   1U    0     4     4  0.208      0.208      0.0009622 
   1   569   2     0     1     1  0.209      0.209      0.0002405 
   1   570   1     0     3     3  0.209      0.209      0.0003608 
   1   571   1     0     2     2  0.210      0.210      0.0005412 
   1   572   1     0     1     1  0.210      0.210      0.0008118 
   1   573   1U    0     4     4  0.210      0.210      0.001000  
   1   573   2     0     2     2  0.211      0.211      0.0002500 
   1   574   1     0     1     1  0.211      0.211      0.0003750 
   1   575   1     0     1     1  0.212      0.212      0.0005625 
   1   576   1U    0     4     4  0.212      0.212      0.0008438 
   1   576   2     0     1     1  0.212      0.212      0.0002109 
   1   577   1     0     2     2  0.212      0.212      0.0003164 
   1   578   1     0     1     1  0.213      0.213      0.0004746 
   1   579   1     0    11    11  0.213      0.213      0.0007119 
   1   580   1     0     4     4  0.214      0.214      0.0005339 
   1   581   1     0     1     1  0.214      0.214      0.0005339 
   1   582   1U    0     4     4  0.214      0.214      0.0008009 
   1   582   2     0     1     1  0.215      0.215      0.0002002 
   1   583   1     0     2     2  0.215      0.215      0.0003003 
   1   584   1     0     1     1  0.215      0.215      0.0004505 
   1   585   1     0     4     4  0.216      0.216      0.0006758 
   1   586   1     0     1     1  0.217      0.217      0.001000  
   1   587   1U    0     4     4  0.217      0.217      0.001000  
   1   587   2     0     1     1  0.217      0.217      0.0002500 
   1   588   1     0     3     3  0.218      0.218      0.0003750 
   1   589   1     0     4     4  0.218      0.218      0.0005625 
   1   590   1U    0     4     4  0.218      0.218      0.0008438 
   1   590   2     0     1     1  0.218      0.218      0.0002109 
   1   591   1     0     2     2  0.219      0.219      0.0003164 
   1   592   1     0     1     1  0.219      0.219      0.0004746 
   1   593   1U    0    16    16  0.219      0.219      0.0007119 
   1   593   2     0     1     1  0.219      0.219      0.0001780 
   1   594   1     0     1     1  0.220      0.220      0.0002670 
   1   595   1     0     1     1  0.220      0.220      0.0004005 
   1   596   1     0     3     3  0.221      0.221      0.0006007 
   1   597   1U    0     4     4  0.221      0.221      0.0009010 
   1   597   2     0     1     1  0.221      0.221      0.0002253 
   1   598   1     0     2     2  0.221      0.221      0.0003379 
   1   599   1     0     1     1  0.222      0.222      0.0005068 
   1   600   1U    0     4     4  0.222      0.222      0.0007602 
   1   600   2     0     1     1  0.222      0.222      0.0001901 
   1   601   1     0     1     1  0.222      0.222      0.0002851 
   1   602   1     0     2     2  0.223      0.223      0.0004276 
   1   603   1     0     2     2  0.223      0.223      0.0006414 
   1   604   1U    0     4     4  0.223      0.223      0.0009622 
   1   604   2     0     1     1  0.223      0.223      0.0002405 
   1   605   1     0     2     2  0.224      0.224      0.0003608 
   1   606   1     0     1     1  0.224      0.224      0.0005412 
   1   607   1U    0     4     4  0.224      0.224      0.0008118 
   1   607   2     0     1     1  0.225      0.225      0.0002030 
   1   608   1     0     2     2  0.225      0.225      0.0003044 
   1   609   1     0     1     1  0.225      0.225      0.0004567 
   1   610   1     0     1     1  0.226      0.226      0.0006850 
   1   611   1U    0     4     4  0.226      0.226      0.001000  
   1   611   2     0     1     1  0.226      0.226      0.0002500 
   1   612   1     0     3     3  0.227      0.227      0.0003750 
   1   613   1     0     2     2  0.227      0.227      0.0005625 
   1   614   1     0     1     1  0.228      0.228      0.0008438 
   1   615   1U    0     4     4  0.228      0.228      0.001000  
   1   615   2     0     1     1  0.228      0.228      0.0002500 
   1   616   1     0     2     2  0.229      0.229      0.0003750 
   1   617   1     0     1     1  0.229      0.229      0.0005625 
   1   618   1U    0     4     4  0.229      0.229      0.0008438 
   1   618   2     0     1     1  0.229      0.229      0.0002109 
   1   619   1     0     1     1  0.230      0.230      0.0003164 
   1   620   1     0     2     2  0.230      0.230      0.0004746 
   1   621   1     0    13    13  0.231      0.231      0.0007119 
   1   622   1     0     3     3  0.232      0.232      0.0005339 
   1   623   1     0     4     4  0.232      0.232      0.0005339 
   1   624   1U    0     4     4  0.232      0.232      0.0008009 
   1   624   2     0     1     1  0.232      0.232      0.0002002 
   1   625   1     0     2     2  0.233      0.233      0.0003003 
   1   626   1     0     1     1  0.233      0.233      0.0004505 
   1   627   1     0     5     5  0.234      0.234      0.0006758 
   1   628   1     0     5     5  0.234      0.234      0.0006758 
   1   629   1     0    14    14  0.235      0.235      0.0006758 
   1   630   1     0     2     2  0.236      0.236      0.0005068 
   1   631   1     0     1     1  0.236      0.236      0.0005068 
   1   632   1U    0     4     4  0.236      0.236      0.0007602 
   1   632   2     0     1     1  0.236      0.236      0.0001901 
   1   633   1     0     1     1  0.237      0.237      0.0002851 
   1   634   1     0     2     2  0.237      0.237      0.0004276 
   1   635   1     0     1     1  0.238      0.238      0.0006414 
   1   636   1U    0     4     4  0.238      0.238      0.0009622 
   1   636   2     0     1     1  0.238      0.238      0.0002405 
   1   637   1     0     1     1  0.238      0.238      0.0003608 
   1   638   1     0     2     2  0.239      0.239      0.0005412 
   1   639   1U    0     4     4  0.239      0.239      0.0008118 
   1   639   2     0     1     1  0.239      0.239      0.0002030 
   1   640   1     0     2     2  0.239      0.239      0.0003044 
   1   641   1     0     1     1  0.240      0.240      0.0004567 
   1   642   1     0     4     4  0.240      0.240      0.0006850 
   1   643   1U    0     4     4  0.240      0.240      0.001000  
   1   643   2     0     1     1  0.241      0.241      0.0002500 
   1   644   1     0     3     3  0.241      0.241      0.0003750 
   1   645   1     0     4     4  0.242      0.242      0.0005625 
   1   646   1U    0     4     4  0.242      0.242      0.0008438 
   1   646   2     0     1     1  0.242      0.242      0.0002109 
   1   647   1     0     2     2  0.242      0.242      0.0003164 
   1   648   1     0     1     1  0.243      0.243      0.0004746 
   1   649   1     0     8     8  0.243      0.243      0.0007119 
   1   650   1U    0    16    16  0.243      0.243      0.0007119 
   1   650   2     0     1     1  0.243      0.243      0.0001780 
   1   651   1     0     2     2  0.244      0.244      0.0001780 
   1   652   1     0     1     1  0.244      0.244      0.0002670 
   1   653   1     0     1     1  0.244      0.244      0.0004005 
   1   654   1     0     1     1  0.245      0.245      0.0006007 
   1   655   1     0     1     1  0.246      0.246      0.0009010 
   1   656   1U    0     4     4  0.246      0.246      0.001000  
   1   656   2     0     1     1  0.246      0.246      0.0002500 
   1   657   1     0     1     1  0.246      0.246      0.0003750 
   1   658   1     0     1     1  0.247      0.247      0.0005625 
   1   659   1U    0     4     4  0.247      0.247      0.0008438 
   1   659   2     0     1     1  0.247      0.247      0.0002109 
   1   660   1     0     2     2  0.248      0.248      0.0003164 
   1   661   1     0     1     1  0.248      0.248      0.0004746 
   1   662   1     0    10    10  0.249      0.249      0.0007119 
   1   663   1     0     1     1  0.249      0.249      0.0007119 
   1   664   1U    0    16    16  0.249      0.249      0.0007119 
   1   664   2     0     1     1  0.250      0.250      0.0001780 
   1   665   1     0     2     2  0.250      0.250      0.0002670 
   1   666   1     0     1     1  0.250      0.250      0.0004005 
   1   667   1     0     1     1  0.251      0.251      0.0006007 
   1   668   1     0     1     1  0.252      0.252      0.0009010 
   1   669   1U    0     4     4  0.252      0.252      0.001000  
   1   669   2     0     2     2  0.252      0.252      0.0002500 
   1   670   1     0     1     1  0.252      0.252      0.0003750 
   1   671   1     0     1     1  0.253      0.253      0.0005625 
   1   672   1U    0     4     4  0.253      0.253      0.0008438 
   1   672   2     0     1     1  0.253      0.253      0.0002109 
   1   673   1     0     2     2  0.253      0.253      0.0003164 
   1   674   1     0     1     1  0.254      0.254      0.0004746 
   1   675   1     0     8     8  0.255      0.255      0.0007119 
   1   676   1     0     1     1  0.255      0.255      0.0007119 
   1   677   1U    0    16    16  0.255      0.255      0.0007119 
   1   677   2     0     1     1  0.256      0.256      0.0001780 
   1   678   1     0     2     2  0.256      0.256      0.0002670 
   1   679   1     0     1     1  0.256      0.256      0.0004005 
   1   680   1     0     1     1  0.257      0.257      0.0006007 
   1   681   1     0     1     1  0.258      0.258      0.0009010 
   1   682   1U    0     4     4  0.258      0.258      0.001000  
   1   682   2     0     2     2  0.258      0.258      0.0002500 
   1   683   1     0     1     1  0.258      0.258      0.0003750 
   1   684   1     0     1     1  0.259      0.259      0.0005625 
   1   685   1U    0     4     4  0.259      0.259      0.0008438 
   1   685   2     0     1     1  0.259      0.259      0.0002109 
   1   686   1     0     2     2  0.259      0.259      0.0003164 
   1   687   1     0     1     1  0.260      0.260      0.0004746 
   1   688   1     0     8     8  0.261      0.261      0.0007119 
   1   689   1     0     1     1  0.261      0.261      0.0007119 
   1   690   1U    0    16    16  0.261      0.261      0.0007119 
   1   690   2     0     1     1  0.262      0.262      0.0001780 
   1   691   1     0     2     2  0.262      0.262      0.0002670 
   1   692   1     0     1     1  0.262      0.262      0.0004005 
   1   693   1     0     1     1  0.263      0.263      0.0006007 
   1   694   1     0     1     1  0.264      0.264      0.0009010 
   1   695   1U    0     4     4  0.264      0.264      0.001000  
   1   695   2     0     1     1  0.264      0.264      0.0002500 
   1   696   1     0     3     3  0.264      0.264      0.0003750 
   1   697   1     0     4     4  0.265      0.265      0.0005625 
   1   698   1U    0     4     4  0.265      0.265      0.0008438 
   1   698   2     0     1     1  0.265      0.265      0.0002109 
   1   699   1     0     2     2  0.265      0.265      0.0003164 
   1   700   1     0     1     1  0.266      0.266      0.0004746 
   1   701   1     0     4     4  0.267      0.267      0.0007119 
   1   702   1U    0     4     4  0.267      0.267      0.001000  
   1   702   2     0     1     1  0.267      0.267      0.0002500 
   1   703   1     0     3     3  0.267      0.267      0.0003750 
   1   704   1     0     4     4  0.268      0.268      0.0005625 
   1   705   1U    0     4     4  0.268      0.268      0.0008438 
   1   705   2     0     1     1  0.268      0.268      0.0002109 
   1   706   1     0     2     2  0.268      0.268      0.0003164 
   1   707   1     0     1     1  0.269      0.269      0.0004746 
   1   708   1     0     4     4  0.269      0.269      0.0007119 
   1   709   1U    0     4     4  0.269      0.269      0.001000  
   1   709   2     0     1     1  0.270      0.270      0.0002500 
   1   710   1     0     3     3  0.270      0.270      0.0003750 
   1   711   1     0     3     3  0.271      0.271      0.0005625 
   1   712   1U    0     4     4  0.271      0.271      0.0008438 
   1   712   2     0     1     1  0.271      0.271      0.0002109 
   1   713   1     0     2     2  0.271      0.271      0.0003164 
   1   714   1     0     1     1  0.272      0.272      0.0004746 
   1   715   1     0     7     7  0.272      0.272      0.0007119 
   1   716   1     0    16    16  0.273      0.273      0.0007119 
   1   717   1     0     2     2  0.274      0.274      0.0005339 
   1   718   1     0     1     1  0.274      0.274      0.0005339 
   1   719   1U    0     4     4  0.274      0.274      0.0008009 
   1   719   2     0     1     1  0.274      0.274      0.0002002 
   1   720   1     0     2     2  0.275      0.275      0.0003003 
   1   721   1     0     1     1  0.275      0.275      0.0004505 
   1   722   1     0     1     1  0.276      0.276      0.0006758 
   1   723   1U    0     4     4  0.276      0.276      0.001000  
   1   723   2     0     1     1  0.276      0.276      0.0002500 
   1   724   1     0     2     2  0.276      0.276      0.0003750 
   1   725   1     0     1     1  0.277      0.277      0.0005625 
   1   726   1U    0     4     4  0.277      0.277      0.0008438 
   1   726   2     0     1     1  0.277      0.277      0.0002109 
   1   727   1     0     1     1  0.278      0.278      0.0003164 
   1   728   1     0     2     2  0.278      0.278      0.0004746 
   1   729   1     0     6     6  0.279      0.279      0.0007119 
   1   730   1     0     9     9  0.279      0.279      0.0007119 
   1   731   1     0    12    12  0.280      0.280      0.0007119 
   1   732   1     0     1     1  0.281      0.281      0.0005339 
   1   733   1     0     3     3  0.281      0.281      0.0005339 
   1   734   1U    0     4     4  0.281      0.281      0.0008009 
   1   734   2     0     1     1  0.281      0.281      0.0002002 
   1   735   1     0     2     2  0.282      0.282      0.0003003 
   1   736   1     0     1     1  0.282      0.282      0.0004505 
   1   737   1     0     1     1  0.283      0.283      0.0006758 
   1   738   1U    0     4     4  0.283      0.283      0.001000  
   1   738   2     0     2     2  0.283      0.283      0.0002500 
   1   739   1     0     1     1  0.283      0.283      0.0003750 
   1   740   1     0     1     1  0.284      0.284      0.0005625 
   1   741   1U    0     4     4  0.284      0.284      0.0008438 
   1   741   2     0     1     1  0.284      0.284      0.0002109 
   1   742   1     0     2     2  0.285      0.285      0.0003164 
   1   743   1     0     1     1  0.285      0.285      0.0004746 
   1   744   1     0     3     3  0.286      0.286      0.0007119 
   1   745   1U    0     4     4  0.286      0.286      0.001000  
   1   745   2     0     2     2  0.286      0.286      0.0002500 
   1   746   1     0     1     1  0.286      0.286      0.0003750 
   1   747   1     0     1     1  0.287      0.287      0.0005625 
   1   748   1U    0     4     4  0.287      0.287      0.0008438 
   1   748   2     0     1     1  0.287      0.287      0.0002109 
   1   749   1     0     2     2  0.287      0.287      0.0003164 
   1   750   1     0     1     1  0.288      0.288      0.0004746 
   1   751   1     0     4     4  0.289      0.289      0.0007119 
   1   752   1     0     1     1  0.290      0.290      0.001000  
   1   753   1U    0     4     4  0.290      0.290      0.001000  
   1   753   2     0     1     1  0.290      0.290      0.0002500 
   1   754   1     0     2     2  0.290      0.290      0.0003750 
   1   755   1     0     1     1  0.291      0.291      0.0005625 
   1   756   1U    0     4     4  0.291      0.291      0.0008438 
   1   756   2     0     1     1  0.291      0.291      0.0002109 
   1   757   1     0     1     1  0.291      0.291      0.0003164 
   1   758   1     0     2     2  0.292      0.292      0.0004746 
   1   759   1     0     6     6  0.293      0.293      0.0007119 
   1   760   1     0     7     7  0.293      0.293      0.0007119 
   1   761   1     0    10    10  0.294      0.294      0.0007119 
   1   762   1     0     1     1  0.295      0.295      0.0007119 
   1   763   1     0    10    10  0.295      0.295      0.0007119 
   1   764   1     0     9     9  0.296      0.296      0.0007119 
   1   765   1     0    11    11  0.297      0.297      0.0007119 
   1   766   1     0     4     4  0.297      0.297      0.0005339 
   1   767   1     0     1     1  0.298      0.298      0.0005339 
   1   768   1U    0     4     4  0.298      0.298      0.0008009 
   1   768   2     0     1     1  0.298      0.298      0.0002002 
   1   769   1     0     2     2  0.298      0.298      0.0003003 
   1   770   1     0     1     1  0.299      0.299      0.0004505 
   1   771   1     0     1     1  0.299      0.299      0.0006758 
   1   772   1U    0     4     4  0.299      0.299      0.001000  
   1   772   2     0     1     1  0.300      0.300      0.0002500 
   1   773   1     0     2     2  0.300      0.300      0.0003750 
   1   774   1     0     1     1  0.301      0.301      0.0005625 
   1   775   1U    0     4     4  0.301      0.301      0.0008438 
   1   775   2     0     1     1  0.301      0.301      0.0002109 
   1   776   1     0     1     1  0.301      0.301      0.0003164 
   1   777   1     0     1     1  0.302      0.302      0.0004746 
   1   778   1     0     6     6  0.302      0.302      0.0007119 
   1   779   1     0     1     1  0.303      0.303      0.0007119 
   1   780   1     0    11    11  0.304      0.304      0.0007119 
   1   781   1     0     3     3  0.304      0.304      0.0005339 
   1   782   1     0     4     4  0.305      0.305      0.0005339 
   1   783   1U    0     4     4  0.305      0.305      0.0008009 
   1   783   2     0     1     1  0.305      0.305      0.0002002 
   1   784   1     0     1     1  0.305      0.305      0.0003003 
   1   785   1     0     2     2  0.306      0.306      0.0004505 
   1   786   1     0     3     3  0.307      0.307      0.0006758 
   1   787   1U    0     4     4  0.307      0.307      0.001000  
   1   787   2     0     1     1  0.307      0.307      0.0002500 
   1   788   1     0     2     2  0.307      0.307      0.0003750 
   1   789   1     0     2     2  0.308      0.308      0.0005625 
   1   790   1U    0     4     4  0.308      0.308      0.0008438 
   1   790   2     0     1     1  0.308      0.308      0.0002109 
   1   791   1     0     2     2  0.308      0.308      0.0003164 
   1   792   1     0     1     1  0.309      0.309      0.0004746 
   1   793   1     0     1     1  0.309      0.309      0.0007119 
   1   794   1U    0     4     4  0.309      0.309      0.001000  
   1   794   2     0     1     1  0.310      0.310      0.0002500 
   1   795   1     0     3     3  0.310      0.310      0.0003750 
   1   796   1     0     2     2  0.311      0.311      0.0005625 
   1   797   1     0     1     1  0.311      0.311      0.0008438 
   1   798   1U    0     4     4  0.311      0.311      0.001000  
   1   798   2     0     1     1  0.312      0.312      0.0002500 
   1   799   1     0     2     2  0.312      0.312      0.0003750 
   1   800   1     0     1     1  0.313      0.313      0.0005625 
   1   801   1U    0     4     4  0.313      0.313      0.0008438 
   1   801   2     0     1     1  0.313      0.313      0.0002109 
   1   802   1     0     1     1  0.313      0.313      0.0003164 
   1   803   1     0     1     1  0.314      0.314      0.0004746 
   1   804   1     0     6     6  0.314      0.314      0.0007119 
   1   805   1     0     1     1  0.315      0.315      0.0007119 
   1   806   1     0    10    10  0.316      0.316      0.0007119 
   1   807   1     0     7     7  0.316      0.316      0.0007119 
   1   808   1     0     9     9  0.317      0.317      0.0007119 
   1   809   1     0    12    12  0.318      0.318      0.0007119 
   1   810   1     0     2     2  0.318      0.318      0.0005339 
   1   811   1     0     1     1  0.319      0.319      0.0005339 
   1   812   1U    0     4     4  0.319      0.319      0.0008009 
   1   812   2     0     1     1  0.319      0.319      0.0002002 
   1   813   1     0     1     1  0.319      0.319      0.0003003 
   1   814   1     0     2     2  0.320      0.320      0.0004505 
   1   815   1     0     1     1  0.321      0.321      0.0006758 
   1   816   1U    0     4     4  0.321      0.321      0.001000  
   1   816   2     0     1     1  0.321      0.321      0.0002500 
   1   817   1     0     1     1  0.321      0.321      0.0003750 
   1   818   1     0     1     1  0.322      0.322      0.0005625 
   1   819   1U    0     4     4  0.322      0.322      0.0008438 
   1   819   2     0     1     1  0.322      0.322      0.0002109 
   1   820   1     0     2     2  0.322      0.322      0.0003164 
   1   821   1     0     1     1  0.323      0.323      0.0004746 
   1   822   1     0     3     3  0.323      0.323      0.0007119 
   1   823   1U    0     4     4  0.323      0.323      0.001000  
   1   823   2     0     1     1  0.324      0.324      0.0002500 
   1   824   1     0     2     2  0.324      0.324      0.0003750 
   1   825   1     0     1     1  0.325      0.325      0.0005625 
   1   826   1U    0     4     4  0.325      0.325      0.0008438 
   1   826   2     0     1     1  0.325      0.325      0.0002109 
   1   827   1     0     1     1  0.325      0.325      0.0003164 
   1   828   1     0     2     2  0.326      0.326      0.0004746 
   1   829   1     0     4     4  0.326      0.326      0.0007119 
   1   830   1U    0     4     4  0.326      0.326      0.001000  
   1   830   2     0     1     1  0.327      0.327      0.0002500 
   1   831   1     0     2     2  0.327      0.327      0.0003750 
   1   832   1     0     1     1  0.328      0.328      0.0005625 
   1   833   1U    0     4     4  0.328      0.328      0.0008438 
   1   833   2     0     1     1  0.328      0.328      0.0002109 
   1   834   1     0     1     1  0.328      0.328      0.0003164 
   1   835   1     0     2     2  0.329      0.329      0.0004746 
   1   836   1     0     4     4  0.329      0.329      0.0007119 
   1   837   1U    0     4     4  0.329      0.329      0.001000  
   1   837   2     0     1     1  0.330      0.330      0.0002500 
   1   838   1     0     2     2  0.330      0.330      0.0003750 
   1   839   1     0     1     1  0.330      0.330      0.0005625 
   1   840   1U    0     4     4  0.330      0.330      0.0008438 
   1   840   2     0     1     1  0.331      0.331      0.0002109 
   1   841   1     0     1     1  0.331      0.331      0.0003164 
   1   842   1     0     2     2  0.331      0.331      0.0004746 
   1   843   1     0     4     4  0.332      0.332      0.0007119 
   1   844   1U    0     4     4  0.332      0.332      0.001000  
   1   844   2     0     1     1  0.332      0.332      0.0002500 
   1   845   1     0     2     2  0.333      0.333      0.0003750 
   1   846   1     0     1     1  0.333      0.333      0.0005625 
   1   847   1U    0     4     4  0.333      0.333      0.0008438 
   1   847   2     0     1     1  0.334      0.334      0.0002109 
   1   848   1     0     1     1  0.334      0.334      0.0003164 
   1   849   1     0     2     2  0.334      0.334      0.0004746 
   1   850   1     0     4     4  0.335      0.335      0.0007119 
   1   851   1U    0     4     4  0.335      0.335      0.001000  
   1   851   2     0     1     1  0.335      0.335      0.0002500 
   1   852   1     0     2     2  0.336      0.336      0.0003750 
   1   853   1     0     1     1  0.336      0.336      0.0005625 
   1   854   1U    0     4     4  0.336      0.336      0.0008438 
   1   854   2     0     1     1  0.336      0.336      0.0002109 
   1   855   1     0     1     1  0.337      0.337      0.0003164 
   1   856   1     0     2     2  0.337      0.337      0.0004746 
   1   857   1     0     3     3  0.338      0.338      0.0007119 
   1   858   1U    0     4     4  0.338      0.338      0.001000  
   1   858   2     0     1     1  0.338      0.338      0.0002500 
   1   859   1     0     3     3  0.339      0.339      0.0003750 
   1   860   1     0     2     2  0.339      0.339      0.0005625 
   1   861   1     0     1     1  0.340      0.340      0.0008438 
   1   862   1U    0     4     4  0.340      0.340      0.001000  
   1   862   2     0     1     1  0.340      0.340      0.0002500 
   1   863   1     0     2     2  0.341      0.341      0.0003750 
   1   864   1     0     1     1  0.341      0.341      0.0005625 
   1   865   1U    0     4     4  0.341      0.341      0.0008438 
   1   865   2     0     1     1  0.341      0.341      0.0002109 
   1   866   1     0     1     1  0.342      0.342      0.0003164 
   1   867   1     0     1     1  0.342      0.342      0.0004746 
   1   868   1     0     2     2  0.343      0.343      0.0007119 
   1   869   1     0     1     1  0.344      0.344      0.001000  
   1   870   1U    0     4     4  0.344      0.344      0.001000  
   1   870   2     0     1     1  0.344      0.344      0.0002500 
   1   871   1     0     2     2  0.345      0.345      0.0003750 
   1   872   1     0     1     1  0.345      0.345      0.0005625 
   1   873   1U    0     4     4  0.345      0.345      0.0008438 
   1   873   2     0     1     1  0.345      0.345      0.0002109 
   1   874   1     0     1     1  0.346      0.346      0.0003164 
   1   875   1     0     2     2  0.346      0.346      0.0004746 
   1   876   1     0     1     1  0.347      0.347      0.0007119 
   1   877   1U    0     4     4  0.347      0.347      0.001000  
   1   877   2     0     2     2  0.347      0.347      0.0002500 
   1   878   1     0     1     1  0.347      0.347      0.0003750 
   1   879   1     0     1     1  0.348      0.348      0.0005625 
   1   880   1U    0     4     4  0.348      0.348      0.0008438 
   1   880   2     0     1     1  0.348      0.348      0.0002109 
   1   881   1     0     2     2  0.349      0.349      0.0003164 
   1   882   1     0     1     1  0.349      0.349      0.0004746 
   1   883   1     0     1     1  0.350      0.350      0.0007119 
   1   884   1U    0     4     4  0.350      0.350      0.001000  
   1   884   2     0     1     1  0.350      0.350      0.0002500 
   1   885   1     0     3     3  0.350      0.350      0.0003750 
   1   886   1     0     2     2  0.351      0.351      0.0005625 
   1   887   1     0     1     1  0.352      0.352      0.0008438 
   1   888   1U    0     4     4  0.352      0.352      0.001000  
   1   888   2     0     1     1  0.352      0.352      0.0002500 
   1   889   1     0     2     2  0.352      0.352      0.0003750 
   1   890   1     0     1     1  0.353      0.353      0.0005625 
   1   891   1U    0     4     4  0.353      0.353      0.0008438 
   1   891   2     0     1     1  0.353      0.353      0.0002109 
   1   892   1     0     1     1  0.353      0.353      0.0003164 
   1   893   1     0     1     1  0.354      0.354      0.0004746 
   1   894   1     0     1     1  0.355      0.355      0.0007119 
   1   895   1U    0     4     4  0.355      0.355      0.001000  
   1   895   2     0     1     1  0.355      0.355      0.0002500 
   1   896   1     0     2     2  0.355      0.355      0.0003750 
   1   897   1     0     1     1  0.356      0.356      0.0005625 
   1   898   1U    0     4     4  0.356      0.356      0.0008438 
   1   898   2     0     1     1  0.356      0.356      0.0002109 
   1   899   1     0     1     1  0.356      0.356      0.0003164 
   1   900   1     0     1     1  0.357      0.357      0.0004746 
   1   901   1     0     3     3  0.358      0.358      0.0007119 
   1   902   1U    0     4     4  0.358      0.358      0.001000  
   1   902   2     0     2     2  0.358      0.358      0.0002500 
   1   903   1     0     1     1  0.358      0.358      0.0003750 
   1   904   1     0     1     1  0.359      0.359      0.0005625 
   1   905   1U    0     4     4  0.359      0.359      0.0008438 
   1   905   2     0     1     1  0.359      0.359      0.0002109 
   1   906   1     0     2     2  0.359      0.359      0.0003164 
   1   907   1     0     1     1  0.360      0.360      0.0004746 
   1   908   1     0     1     1  0.360      0.360      0.0007119 
   1   909   1U    0     4     4  0.360      0.360      0.001000  
   1   909   2     0     1     1  0.361      0.361      0.0002500 
   1   910   1     0     2     2  0.361      0.361      0.0003750 
   1   911   1     0     1     1  0.362      0.362      0.0005625 
   1   912   1U    0     4     4  0.362      0.362      0.0008438 
   1   912   2     0     1     1  0.362      0.362      0.0002109 
   1   913   1     0     1     1  0.362      0.362      0.0003164 
   1   914   1     0     2     2  0.363      0.363      0.0004746 
   1   915   1     0     1     1  0.363      0.363      0.0007119 
   1   916   1U    0     4     4  0.363      0.363      0.001000  
   1   916   2     0     2     2  0.364      0.364      0.0002500 
   1   917   1     0     1     1  0.364      0.364      0.0003750 
   1   918   1     0     1     1  0.365      0.365      0.0005625 
   1   919   1U    0     4     4  0.365      0.365      0.0008438 
   1   919   2     0     1     1  0.365      0.365      0.0002109 
   1   920   1     0     2     2  0.365      0.365      0.0003164 
   1   921   1     0     1     1  0.366      0.366      0.0004746 
   1   922   1     0     1     1  0.366      0.366      0.0007119 
   1   923   1U    0     4     4  0.366      0.366      0.001000  
   1   923   2     0     1     1  0.367      0.367      0.0002500 
   1   924   1     0     2     2  0.367      0.367      0.0003750 
   1   925   1     0     1     1  0.367      0.367      0.0005625 
   1   926   1U    0     4     4  0.367      0.367      0.0008438 
   1   926   2     0     1     1  0.368      0.368      0.0002109 
   1   927   1     0     2     2  0.368      0.368      0.0003164 
   1   928   1     0     1     1  0.368      0.368      0.0004746 
   1   929   1     0     2     2  0.369      0.369      0.0007119 
   1   930   1     0     1     1  0.370      0.370      0.001000  
   1   931   1U    0     4     4  0.370      0.370      0.001000  
   1   931   2     0     1     1  0.370      0.370      0.0002500 
   1   932   1     0     2     2  0.371      0.371      0.0003750 
   1   933   1     0     1     1  0.371      0.371      0.0005625 
   1   934   1U    0     4     4  0.371      0.371      0.0008438 
   1   934   2     0     1     1  0.372      0.372      0.0002109 
   1   935   1     0     1     1  0.372      0.372      0.0003164 
   1   936   1     0     1     1  0.372      0.372      0.0004746 
   1   937   1     0     6     6  0.373      0.373      0.0007119 
   1   938   1     0     1     1  0.374      0.374      0.0007119 
   1   939   1     0     7     7  0.375      0.375      0.0007119 
   1   940   1     0     5     5  0.375      0.375      0.0007119 
   1   941   1     0     9     9  0.376      0.376      0.0007119 
   1   942   1     0     6     6  0.377      0.377      0.0007119 
   1   943   1     0     1     1  0.377      0.377      0.0007119 
   1   944   1     0     6     6  0.378      0.378      0.0007119 
   1   945   1     0     5     5  0.379      0.379      0.0007119 
   1   946   1     0     7     7  0.379      0.379      0.0007119 
   1   947   1     0     9     9  0.380      0.380      0.0007119 
   1   948   1     0     6     6  0.381      0.381      0.0007119 
   1   949   1     0     1     1  0.382      0.382      0.0007119 
   1   950   1     0     6     6  0.382      0.382      0.0007119 
   1   951   1     0     5     5  0.383      0.383      0.0007119 
   1   952   1     0     7     7  0.384      0.384      0.0007119 
   1   953   1     0     8     8  0.384      0.384      0.0007119 
   1   954   1     0     4     4  0.385      0.385      0.0007119 
   1   955   1     0     2     2  0.386      0.386      0.0007119 
   1   956   1U    0     4     4  0.386      0.386      0.001000  
   1   956   2     0     1     1  0.386      0.386      0.0002500 
   1   957   1     0     2     2  0.387      0.387      0.0003750 
   1   958   1     0     1     1  0.387      0.387      0.0005625 
   1   959   1U    0     4     4  0.387      0.387      0.0008438 
   1   959   2     0     1     1  0.387      0.387      0.0002109 
   1   960   1     0     1     1  0.388      0.388      0.0003164 
   1   961   1     0     2     2  0.388      0.388      0.0004746 
   1   962   1     0     1     1  0.389      0.389      0.0007119 
   1   963   1U    0     4     4  0.389      0.389      0.001000  
   1   963   2     0     1     1  0.389      0.389      0.0002500 
   1   964   1     0     2     2  0.389      0.389      0.0003750 
   1   965   1     0     1     1  0.390      0.390      0.0005625 
   1   966   1U    0     4     4  0.390      0.390      0.0008438 
   1   966   2     0     1     1  0.390      0.390      0.0002109 
   1   967   1     0     2     2  0.391      0.391      0.0003164 
   1   968   1     0     1     1  0.391      0.391      0.0004746 
   1   969   1     0     1     1  0.392      0.392      0.0007119 
   1   970   1U    0     4     4  0.392      0.392      0.001000  
   1   970   2     0     1     1  0.392      0.392      0.0002500 
   1   971   1     0     2     2  0.392      0.392      0.0003750 
   1   972   1     0     1     1  0.393      0.393      0.0005625 
   1   973   1U    0     4     4  0.393      0.393      0.0008438 
   1   973   2     0     1     1  0.393      0.393      0.0002109 
   1   974   1     0     1     1  0.393      0.393      0.0003164 
   1   975   1     0     1     1  0.394      0.394      0.0004746 
   1   976   1     0     5     5  0.395      0.395      0.0007119 
   1   977   1     0     8     8  0.395      0.395      0.0007119 
   1   978   1     0     3     3  0.396      0.396      0.0007119 
   1   979   1     0     6     6  0.397      0.397      0.0007119 
   1   980   1     0     1     1  0.397      0.397      0.0007119 
   1   981   1     0     5     5  0.398      0.398      0.0007119 
   1   982   1     0     4     4  0.399      0.399      0.0007119 
   1   983   1     0     1     1  0.400      0.400      0.0007119 
   1   984   1U    0     4     4  0.400      0.400      0.001000  
   1   984   2     0     1     1  0.400      0.400      0.0002500 
   1   985   1     0     1     1  0.400      0.400      0.0003750 
   1   986   1     0     3     3  0.401      0.401      0.0005625 
   1   987   1U    0     4     4  0.401      0.401      0.0008438 
   1   987   2     0     1     1  0.401      0.401      0.0002109 
   1   988   1     0     2     2  0.401      0.401      0.0003164 
   1   989   1     0     1     1  0.402      0.402      0.0004746 
   1   990   1     0     1     1  0.402      0.402      0.0007119 
   1   991   1U    0     4     4  0.402      0.402      0.001000  
   1   991   2     0     1     1  0.403      0.403      0.0002500 
   1   992   1     0     2     2  0.403      0.403      0.0003750 
   1   993   1     0     1     1  0.404      0.404      0.0005625 
   1   994   1U    0    16    16  0.404      0.404      0.0008438 
   1   994   2     0     1     1  0.404      0.404      0.0002109 
   1   995   1     0     1     1  0.404      0.404      0.0003164 
   1   996   1     0     1     1  0.405      0.405      0.0004746 
   1   997   1     0     3     3  0.405      0.405      0.0007119 
   1   998   1U    0     4     4  0.405      0.405      0.001000  
   1   998   2     0     1     1  0.406      0.406      0.0002500 
   1   999   1     0     2     2  0.406      0.406      0.0003750 
   1  1000   1     0     1     1  0.407      0.407      0.0005625 
                          
 THE ANALYSIS HAS NOT BEEN COMPLETED
