 Abaqus/Standard 2023                  DATE 31-May-2024 TIME 15:29:50
 SUMMARY OF JOB INFORMATION:
 STEP  INC ATT SEVERE EQUIL TOTAL  TOTAL      STEP       INC OF       DOF    IF
               DISCON ITERS ITERS  TIME/    TIME/LPF    TIME/LPF    MONITOR RIKS
               ITERS               FREQ
   1     1   1     0     2     2  1.00e-05   1.00e-05   1.000e-05 
   1     2   1     0     1     1  2.00e-05   2.00e-05   1.000e-05 
   1     3   1     0     1     1  3.50e-05   3.50e-05   1.500e-05 
   1     4   1     0     1     1  5.75e-05   5.75e-05   2.250e-05 
   1     5   1     0     1     1  9.13e-05   9.13e-05   3.375e-05 
   1     6   1     0     1     1  0.000142   0.000142   5.063e-05 
   1     7   1     0     1     1  0.000218   0.000218   7.594e-05 
   1     8   1     0     1     1  0.000332   0.000332   0.0001139 
   1     9   1     0     1     1  0.000503   0.000503   0.0001709 
   1    10   1     0     1     1  0.000759   0.000759   0.0002563 
   1    11   1     0     1     1  0.00114    0.00114    0.0003844 
   1    12   1     0     1     1  0.00172    0.00172    0.0005767 
   1    13   1     0     2     2  0.00258    0.00258    0.0008650 
   1    14   1     0     1     1  0.00358    0.00358    0.001000  
   1    15   1     0     1     1  0.00458    0.00458    0.001000  
   1    16   1     0     1     1  0.00558    0.00558    0.001000  
   1    17   1     0     1     1  0.00658    0.00658    0.001000  
   1    18   1     0     1     1  0.00758    0.00758    0.001000  
   1    19   1     0     1     1  0.00858    0.00858    0.001000  
   1    20   1     0     1     1  0.00958    0.00958    0.001000  
   1    21   1     0     1     1  0.0106     0.0106     0.001000  
   1    22   1     0     1     1  0.0116     0.0116     0.001000  
   1    23   1     0     1     1  0.0126     0.0126     0.001000  
   1    24   1     0     1     1  0.0136     0.0136     0.001000  
   1    25   1     0     1     1  0.0146     0.0146     0.001000  
   1    26   1     0     1     1  0.0156     0.0156     0.001000  
   1    27   1     0     1     1  0.0166     0.0166     0.001000  
   1    28   1     0     1     1  0.0176     0.0176     0.001000  
   1    29   1     0     1     1  0.0186     0.0186     0.001000  
   1    30   1     0     1     1  0.0196     0.0196     0.001000  
   1    31   1     0     1     1  0.0206     0.0206     0.001000  
   1    32   1     0     1     1  0.0216     0.0216     0.001000  
   1    33   1     0     1     1  0.0226     0.0226     0.001000  
   1    34   1     0     1     1  0.0236     0.0236     0.001000  
   1    35   1     0     1     1  0.0246     0.0246     0.001000  
   1    36   1     0     1     1  0.0256     0.0256     0.001000  
   1    37   1     0     1     1  0.0266     0.0266     0.001000  
   1    38   1     0     1     1  0.0276     0.0276     0.001000  
   1    39   1     0     1     1  0.0286     0.0286     0.001000  
   1    40   1     0     1     1  0.0296     0.0296     0.001000  
   1    41   1     0     1     1  0.0306     0.0306     0.001000  
   1    42   1     0     1     1  0.0316     0.0316     0.001000  
   1    43   1     0     1     1  0.0326     0.0326     0.001000  
   1    44   1     0     1     1  0.0336     0.0336     0.001000  
   1    45   1     0     1     1  0.0346     0.0346     0.001000  
   1    46   1     0     1     1  0.0356     0.0356     0.001000  
   1    47   1     0     1     1  0.0366     0.0366     0.001000  
   1    48   1     0     1     1  0.0376     0.0376     0.001000  
   1    49   1     0     1     1  0.0386     0.0386     0.001000  
   1    50   1     0     1     1  0.0396     0.0396     0.001000  
   1    51   1     0     1     1  0.0406     0.0406     0.001000  
   1    52   1     0     1     1  0.0416     0.0416     0.001000  
   1    53   1     0     1     1  0.0426     0.0426     0.001000  
   1    54   1     0     1     1  0.0436     0.0436     0.001000  
   1    55   1     0     1     1  0.0446     0.0446     0.001000  
   1    56   1     0     1     1  0.0456     0.0456     0.001000  
   1    57   1     0     1     1  0.0466     0.0466     0.001000  
   1    58   1     0     1     1  0.0476     0.0476     0.001000  
   1    59   1     0     1     1  0.0486     0.0486     0.001000  
   1    60   1     0     1     1  0.0496     0.0496     0.001000  
   1    61   1     0     1     1  0.0506     0.0506     0.001000  
   1    62   1     0     1     1  0.0516     0.0516     0.001000  
   1    63   1     0     1     1  0.0526     0.0526     0.001000  
   1    64   1     0     1     1  0.0536     0.0536     0.001000  
   1    65   1     0     1     1  0.0546     0.0546     0.001000  
   1    66   1     0     1     1  0.0556     0.0556     0.001000  
   1    67   1     0     1     1  0.0566     0.0566     0.001000  
   1    68   1     0     1     1  0.0576     0.0576     0.001000  
   1    69   1     0     1     1  0.0586     0.0586     0.001000  
   1    70   1     0     1     1  0.0596     0.0596     0.001000  
   1    71   1     0     1     1  0.0606     0.0606     0.001000  
   1    72   1     0     1     1  0.0616     0.0616     0.001000  
   1    73   1     0     1     1  0.0626     0.0626     0.001000  
   1    74   1     0     1     1  0.0636     0.0636     0.001000  
   1    75   1     0     1     1  0.0646     0.0646     0.001000  
   1    76   1     0     1     1  0.0656     0.0656     0.001000  
   1    77   1     0     1     1  0.0666     0.0666     0.001000  
