1

   Abaqus 2023                                  Date 31-May-2024   Time 15:29:51
   For use by ETH ZUERICH under license from Dassault Systemes or its subsidiary.

                                                                                 
                                                                                 
 STEP    1     INCREMENT     1     STEP TIME    0.00    


                        S T E P       1     S T A T I C   A N A L Y S I S


                                                                                          

     AUTOMATIC TIME CONTROL WITH -
          A SUGGESTED INITIAL TIME INCREMENT OF                1.000E-05
          AND A TOTAL TIME PERIOD OF                            1.00    
          THE MINIMUM TIME INCREMENT ALLOWED IS                1.000E-05
          THE MAXIMUM TIME INCREMENT ALLOWED IS                1.000E-03

     LINEAR EQUATION SOLVER TYPE         DIRECT SPARSE

 CONVERGENCE TOLERANCE PARAMETERS FOR FORCE    
     CRITERION FOR RESIDUAL FORCE     FOR A NONLINEAR PROBLEM          5.000E-03
     CRITERION FOR DISP.    CORRECTION IN A NONLINEAR PROBLEM          1.000E-02
     INITIAL VALUE OF TIME AVERAGE FORCE                               1.000E-02
     AVERAGE FORCE     IS TIME AVERAGE FORCE    
     ALTERNATE CRIT. FOR RESIDUAL FORCE     FOR A NONLINEAR PROBLEM    2.000E-02
     CRITERION FOR ZERO FORCE     RELATIVE TO TIME AVRG. FORCE         1.000E-05
     CRITERION FOR RESIDUAL FORCE     WHEN THERE IS ZERO FLUX          1.000E-05
     CRITERION FOR DISP.    CORRECTION WHEN THERE IS ZERO FLUX         1.000E-03
     CRITERION FOR RESIDUAL FORCE     FOR A LINEAR INCREMENT           1.000E-08
     FIELD CONVERSION RATIO                                             1.00    
     CRITERION FOR ZERO FORCE     REL. TO TIME AVRG. MAX. FORCE        1.000E-05
     CRITERION FOR ZERO DISP.    RELATIVE TO CHARACTERISTIC LENGTH     1.000E-08

     VOLUMETRIC STRAIN COMPATIBILITY TOLERANCE FOR HYBRID SOLIDS       1.000E-05
     AXIAL STRAIN COMPATIBILITY TOLERANCE FOR HYBRID BEAMS             1.000E-05
     TRANS. SHEAR STRAIN COMPATIBILITY TOLERANCE FOR HYBRID BEAMS      1.000E-05
     SOFT CONTACT CONSTRAINT COMPATIBILITY TOLERANCE FOR P>P0          5.000E-03
     SOFT CONTACT CONSTRAINT COMPATIBILITY TOLERANCE FOR P=0.0         0.100    
     CONTACT FORCE ERROR TOLERANCE FOR CONVERT SDI=YES                 1.00    
     DISPLACEMENT COMPATIBILITY TOLERANCE FOR DCOUP ELEMENTS           1.000E-05
     ROTATION COMPATIBILITY TOLERANCE FOR DCOUP ELEMENTS               1.000E-05

 EQUILIBRIUM WILL BE CHECKED FOR SEVERE DISCONTINUITY ITERATIONS

 TIME INCREMENTATION CONTROL PARAMETERS:
     FIRST EQUILIBRIUM ITERATION FOR CONSECUTIVE DIVERGENCE CHECK              4
     EQUILIBRIUM ITERATION AT WHICH LOG. CONVERGENCE RATE CHECK BEGINS         8
     EQUILIBRIUM ITERATION AFTER WHICH ALTERNATE RESIDUAL IS USED              9
     MAXIMUM EQUILIBRIUM ITERATIONS ALLOWED                                   16
     EQUILIBRIUM ITERATION COUNT FOR CUT-BACK IN NEXT INCREMENT               10
     MAXIMUM EQUILIB. ITERS IN TWO INCREMENTS FOR TIME INCREMENT INCREASE      4
     MAXIMUM ITERATIONS FOR SEVERE DISCONTINUITIES                            50
     MAXIMUM ATTEMPTS ALLOWED IN AN INCREMENT                                  5
     MAXIMUM DISCON. ITERS IN TWO INCREMENTS FOR TIME INCREMENT INCREASE      50
     MAXIMUM CONTACT AUGMENTATIONS FOR *SURFACE BEHAVIOR,AUGMENTED LAGRANGE   50
     CUT-BACK FACTOR AFTER DIVERGENCE                                 0.2500    
     CUT-BACK FACTOR FOR TOO SLOW CONVERGENCE                         0.5000    
     CUT-BACK FACTOR AFTER TOO MANY EQUILIBRIUM ITERATIONS            0.7500    
     CUT-BACK FACTOR AFTER TOO MANY SEVERE DISCONTINUITY ITERATIONS   0.2500    
     CUT-BACK FACTOR AFTER PROBLEMS IN ELEMENT ASSEMBLY               0.2500    
     INCREASE FACTOR AFTER TWO INCREMENTS THAT CONVERGE QUICKLY        1.500    
     MAX. TIME INCREMENT INCREASE FACTOR ALLOWED                       1.500    
     MAX. TIME INCREMENT INCREASE FACTOR ALLOWED (DYNAMICS)            1.250    
     MAX. TIME INCREMENT INCREASE FACTOR ALLOWED (DIFFUSION)           2.000    
     MINIMUM TIME INCREMENT RATIO FOR EXTRAPOLATION TO OCCUR          0.1000    
     MAX. RATIO OF TIME INCREMENT TO STABILITY LIMIT                   1.000    
     FRACTION OF STABILITY LIMIT FOR NEW TIME INCREMENT               0.9500    
     TIME INCREMENT INCREASE FACTOR BEFORE A TIME POINT                1.000    
     GLOBAL STABILIZATION CONTROL IS NOT USED

          PRINT OF INCREMENT NUMBER, TIME, ETC., EVERY    1  INCREMENTS

     THE MAXIMUM NUMBER OF INCREMENTS IN THIS STEP IS                    1000

          LARGE DISPLACEMENT THEORY WILL BE USED

     LINEAR EXTRAPOLATION WILL BE USED

     CHARACTERISTIC ELEMENT LENGTH     0.100    

     DETAILS REGARDING ACTUAL SOLUTION WAVEFRONT REQUESTED

     DETAILED OUTPUT OF DIAGNOSTICS TO DATABASE REQUESTED

     PRINT OF INCREMENT NUMBER, TIME, ETC., TO THE MESSAGE FILE EVERY     1  INCREMENTS

     COLLECTING MODEL CONSTRAINT INFORMATION FOR OVERCONSTRAINT CHECKS

     COLLECTING STEP CONSTRAINT INFORMATION FOR OVERCONSTRAINT CHECKS


  INCREMENT     1 STARTS. ATTEMPT NUMBER  1, TIME INCREMENT  1.000E-05
 
	SYMMETRIC DIRECT SPARSE SOLVER RUNNING ON
 	1 HOST:        1 MPI RANK  x 1 THREAD
 	NUMBER OF EQUATIONS:     18
 	NUMBER OF RHS:           1
 	NUMBER OF FLOPS:         2.109e+03

     CHECK POINT  START OF SOLVER     

     CHECK POINT  END OF SOLVER       

       ELAPSED USER TIME (SEC)      =   0.0000    
       ELAPSED SYSTEM TIME (SEC)    =   0.0000    
       ELAPSED TOTAL CPU TIME (SEC) =   0.0000    
       ELAPSED WALLCLOCK TIME (SEC) =            0

               CONVERGENCE CHECKS FOR EQUILIBRIUM ITERATION     1


 AVERAGE FORCE                      1.737E-03   TIME AVG. FORCE       1.737E-03
 LARGEST SCALED RESIDUAL FORCE      1.954E-08   AT NODE          3   DOF  1
  CORRESPONDING RESIDUAL FORCE      1.954E-08
 LARGEST INCREMENT OF DISP.         1.000E-06   AT NODE          1   DOF  2
 LARGEST CORRECTION TO DISP.        1.000E-06   AT NODE          1   DOF  2
          DISP.    CORRECTION TOO LARGE COMPARED TO DISP.    INCREMENT
 
	SYMMETRIC DIRECT SPARSE SOLVER RUNNING ON
 	1 HOST:        1 MPI RANK  x 1 THREAD
 	NUMBER OF EQUATIONS:     18
 	NUMBER OF RHS:           1
 	NUMBER OF FLOPS:         2.109e+03

     CHECK POINT  START OF SOLVER     

     CHECK POINT  END OF SOLVER       

       ELAPSED USER TIME (SEC)      =   0.0000    
       ELAPSED SYSTEM TIME (SEC)    =   0.0000    
       ELAPSED TOTAL CPU TIME (SEC) =   0.0000    
       ELAPSED WALLCLOCK TIME (SEC) =            0

               CONVERGENCE CHECKS FOR EQUILIBRIUM ITERATION     2


 AVERAGE FORCE                      1.737E-03   TIME AVG. FORCE       1.737E-03
 LARGEST SCALED RESIDUAL FORCE      6.071E-19   AT NODE          3   DOF  1
  CORRESPONDING RESIDUAL FORCE      6.071E-19
 LARGEST INCREMENT OF DISP.         1.000E-06   AT NODE          1   DOF  2
 LARGEST CORRECTION TO DISP.        1.950E-12   AT NODE          5   DOF  3
          THE FORCE     EQUILIBRIUM EQUATIONS HAVE CONVERGED

 ITERATION SUMMARY FOR THE INCREMENT:   2 TOTAL ITERATIONS, OF WHICH
   0 ARE SEVERE DISCONTINUITY ITERATIONS AND  2 ARE EQUILIBRIUM ITERATIONS.

 TIME INCREMENT COMPLETED  1.000E-05,  FRACTION OF STEP COMPLETED  1.000E-05
 STEP TIME COMPLETED       1.000E-05,  TOTAL TIME COMPLETED        1.000E-05


  INCREMENT     2 STARTS. ATTEMPT NUMBER  1, TIME INCREMENT  1.000E-05
 
	SYMMETRIC DIRECT SPARSE SOLVER RUNNING ON
 	1 HOST:        1 MPI RANK  x 1 THREAD
 	NUMBER OF EQUATIONS:     18
 	NUMBER OF RHS:           1
 	NUMBER OF FLOPS:         2.109e+03

     CHECK POINT  START OF SOLVER     

     CHECK POINT  END OF SOLVER       

       ELAPSED USER TIME (SEC)      =   0.0000    
       ELAPSED SYSTEM TIME (SEC)    =   0.0000    
       ELAPSED TOTAL CPU TIME (SEC) =   0.0000    
       ELAPSED WALLCLOCK TIME (SEC) =            0

               CONVERGENCE CHECKS FOR EQUILIBRIUM ITERATION     1


 AVERAGE FORCE                      1.042E-02   TIME AVG. FORCE       6.078E-03
 LARGEST SCALED RESIDUAL FORCE      1.477E-18   AT NODE          1   DOF  1
  CORRESPONDING RESIDUAL FORCE      1.477E-18
 LARGEST INCREMENT OF DISP.         1.000E-06   AT NODE          1   DOF  2
 LARGEST CORRECTION TO DISP.        3.900E-12   AT NODE          1   DOF  3
          THE FORCE     EQUILIBRIUM RESPONSE WAS LINEAR IN THIS INCREMENT
          TIME INCREMENT MAY NOW INCREASE TO    1.500E-05

 ITERATION SUMMARY FOR THE INCREMENT:   1 TOTAL ITERATIONS, OF WHICH
   0 ARE SEVERE DISCONTINUITY ITERATIONS AND  1 ARE EQUILIBRIUM ITERATIONS.

 TIME INCREMENT COMPLETED  1.000E-05,  FRACTION OF STEP COMPLETED  2.000E-05
 STEP TIME COMPLETED       2.000E-05,  TOTAL TIME COMPLETED        2.000E-05


  INCREMENT     3 STARTS. ATTEMPT NUMBER  1, TIME INCREMENT  1.500E-05
 
	SYMMETRIC DIRECT SPARSE SOLVER RUNNING ON
 	1 HOST:        1 MPI RANK  x 1 THREAD
 	NUMBER OF EQUATIONS:     18
 	NUMBER OF RHS:           1
 	NUMBER OF FLOPS:         2.109e+03

     CHECK POINT  START OF SOLVER     

     CHECK POINT  END OF SOLVER       

       ELAPSED USER TIME (SEC)      =   0.0000    
       ELAPSED SYSTEM TIME (SEC)    =   0.0000    
       ELAPSED TOTAL CPU TIME (SEC) =   0.0000    
       ELAPSED WALLCLOCK TIME (SEC) =            0

               CONVERGENCE CHECKS FOR EQUILIBRIUM ITERATION     1


 AVERAGE FORCE                      1.823E-02   TIME AVG. FORCE       1.013E-02
 LARGEST SCALED RESIDUAL FORCE      2.777E-18   AT NODE          6   DOF  3
  CORRESPONDING RESIDUAL FORCE      2.777E-18
 LARGEST INCREMENT OF DISP.         1.500E-06   AT NODE          1   DOF  2
 LARGEST CORRECTION TO DISP.        7.312E-12   AT NODE          1   DOF  1
          THE FORCE     EQUILIBRIUM RESPONSE WAS LINEAR IN THIS INCREMENT
          TIME INCREMENT MAY NOW INCREASE TO    2.250E-05

 ITERATION SUMMARY FOR THE INCREMENT:   1 TOTAL ITERATIONS, OF WHICH
   0 ARE SEVERE DISCONTINUITY ITERATIONS AND  1 ARE EQUILIBRIUM ITERATIONS.

 TIME INCREMENT COMPLETED  1.500E-05,  FRACTION OF STEP COMPLETED  3.500E-05
 STEP TIME COMPLETED       3.500E-05,  TOTAL TIME COMPLETED        3.500E-05


  INCREMENT     4 STARTS. ATTEMPT NUMBER  1, TIME INCREMENT  2.250E-05
 
	SYMMETRIC DIRECT SPARSE SOLVER RUNNING ON
 	1 HOST:        1 MPI RANK  x 1 THREAD
 	NUMBER OF EQUATIONS:     18
 	NUMBER OF RHS:           1
 	NUMBER OF FLOPS:         2.109e+03

     CHECK POINT  START OF SOLVER     

     CHECK POINT  END OF SOLVER       

       ELAPSED USER TIME (SEC)      =   0.0000    
       ELAPSED SYSTEM TIME (SEC)    =   0.0000    
       ELAPSED TOTAL CPU TIME (SEC) =   0.0000    
       ELAPSED WALLCLOCK TIME (SEC) =            0

               CONVERGENCE CHECKS FOR EQUILIBRIUM ITERATION     1


 AVERAGE FORCE                      2.996E-02   TIME AVG. FORCE       1.509E-02
 LARGEST SCALED RESIDUAL FORCE      1.551E-17   AT NODE          3   DOF  1
  CORRESPONDING RESIDUAL FORCE      1.551E-17
 LARGEST INCREMENT OF DISP.         2.250E-06   AT NODE          1   DOF  2
 LARGEST CORRECTION TO DISP.        1.645E-11   AT NODE          5   DOF  3
          THE FORCE     EQUILIBRIUM RESPONSE WAS LINEAR IN THIS INCREMENT
          TIME INCREMENT MAY NOW INCREASE TO    3.375E-05

 ITERATION SUMMARY FOR THE INCREMENT:   1 TOTAL ITERATIONS, OF WHICH
   0 ARE SEVERE DISCONTINUITY ITERATIONS AND  1 ARE EQUILIBRIUM ITERATIONS.

 TIME INCREMENT COMPLETED  2.250E-05,  FRACTION OF STEP COMPLETED  5.750E-05
 STEP TIME COMPLETED       5.750E-05,  TOTAL TIME COMPLETED        5.750E-05


  INCREMENT     5 STARTS. ATTEMPT NUMBER  1, TIME INCREMENT  3.375E-05
 
	SYMMETRIC DIRECT SPARSE SOLVER RUNNING ON
 	1 HOST:        1 MPI RANK  x 1 THREAD
 	NUMBER OF EQUATIONS:     18
 	NUMBER OF RHS:           1
 	NUMBER OF FLOPS:         2.109e+03

     CHECK POINT  START OF SOLVER     

     CHECK POINT  END OF SOLVER       

       ELAPSED USER TIME (SEC)      =   0.0000    
       ELAPSED SYSTEM TIME (SEC)    =   0.0000    
       ELAPSED TOTAL CPU TIME (SEC) =   0.0000    
       ELAPSED WALLCLOCK TIME (SEC) =            0

               CONVERGENCE CHECKS FOR EQUILIBRIUM ITERATION     1


 AVERAGE FORCE                      4.754E-02   TIME AVG. FORCE       2.158E-02
 LARGEST SCALED RESIDUAL FORCE      7.208E-17   AT NODE          1   DOF  1
  CORRESPONDING RESIDUAL FORCE      7.208E-17
 LARGEST INCREMENT OF DISP.         3.375E-06   AT NODE          1   DOF  2
 LARGEST CORRECTION TO DISP.        3.701E-11   AT NODE          3   DOF  1
          THE FORCE     EQUILIBRIUM RESPONSE WAS LINEAR IN THIS INCREMENT
          TIME INCREMENT MAY NOW INCREASE TO    5.063E-05

 ITERATION SUMMARY FOR THE INCREMENT:   1 TOTAL ITERATIONS, OF WHICH
   0 ARE SEVERE DISCONTINUITY ITERATIONS AND  1 ARE EQUILIBRIUM ITERATIONS.

 TIME INCREMENT COMPLETED  3.375E-05,  FRACTION OF STEP COMPLETED  9.125E-05
 STEP TIME COMPLETED       9.125E-05,  TOTAL TIME COMPLETED        9.125E-05


  INCREMENT     6 STARTS. ATTEMPT NUMBER  1, TIME INCREMENT  5.063E-05
 
	SYMMETRIC DIRECT SPARSE SOLVER RUNNING ON
 	1 HOST:        1 MPI RANK  x 1 THREAD
 	NUMBER OF EQUATIONS:     18
 	NUMBER OF RHS:           1
 	NUMBER OF FLOPS:         2.109e+03

     CHECK POINT  START OF SOLVER     

     CHECK POINT  END OF SOLVER       

       ELAPSED USER TIME (SEC)      =   0.0000    
       ELAPSED SYSTEM TIME (SEC)    =   0.0000    
       ELAPSED TOTAL CPU TIME (SEC) =   0.0000    
       ELAPSED WALLCLOCK TIME (SEC) =            0

               CONVERGENCE CHECKS FOR EQUILIBRIUM ITERATION     1


 AVERAGE FORCE                      7.391E-02   TIME AVG. FORCE       3.030E-02
 LARGEST SCALED RESIDUAL FORCE      4.019E-16   AT NODE          2   DOF  1
  CORRESPONDING RESIDUAL FORCE      4.019E-16
 LARGEST INCREMENT OF DISP.         5.062E-06   AT NODE          1   DOF  2
 LARGEST CORRECTION TO DISP.        8.328E-11   AT NODE          1   DOF  1
          THE FORCE     EQUILIBRIUM RESPONSE WAS LINEAR IN THIS INCREMENT
          TIME INCREMENT MAY NOW INCREASE TO    7.594E-05

 ITERATION SUMMARY FOR THE INCREMENT:   1 TOTAL ITERATIONS, OF WHICH
   0 ARE SEVERE DISCONTINUITY ITERATIONS AND  1 ARE EQUILIBRIUM ITERATIONS.

 TIME INCREMENT COMPLETED  5.063E-05,  FRACTION OF STEP COMPLETED  1.419E-04
 STEP TIME COMPLETED       1.419E-04,  TOTAL TIME COMPLETED        1.419E-04


  INCREMENT     7 STARTS. ATTEMPT NUMBER  1, TIME INCREMENT  7.594E-05
 
	SYMMETRIC DIRECT SPARSE SOLVER RUNNING ON
 	1 HOST:        1 MPI RANK  x 1 THREAD
 	NUMBER OF EQUATIONS:     18
 	NUMBER OF RHS:           1
 	NUMBER OF FLOPS:         2.109e+03

     CHECK POINT  START OF SOLVER     

     CHECK POINT  END OF SOLVER       

       ELAPSED USER TIME (SEC)      =   0.0000    
       ELAPSED SYSTEM TIME (SEC)    =   0.0000    
       ELAPSED TOTAL CPU TIME (SEC) =   0.0000    
       ELAPSED WALLCLOCK TIME (SEC) =            0

               CONVERGENCE CHECKS FOR EQUILIBRIUM ITERATION     1


 AVERAGE FORCE                      0.113       TIME AVG. FORCE       4.218E-02
 LARGEST SCALED RESIDUAL FORCE      2.012E-15   AT NODE          1   DOF  1
  CORRESPONDING RESIDUAL FORCE      2.012E-15
 LARGEST INCREMENT OF DISP.         7.594E-06   AT NODE          1   DOF  2
 LARGEST CORRECTION TO DISP.        1.873E-10   AT NODE          2   DOF  1
          THE FORCE     EQUILIBRIUM RESPONSE WAS LINEAR IN THIS INCREMENT
          TIME INCREMENT MAY NOW INCREASE TO    1.139E-04

 ITERATION SUMMARY FOR THE INCREMENT:   1 TOTAL ITERATIONS, OF WHICH
   0 ARE SEVERE DISCONTINUITY ITERATIONS AND  1 ARE EQUILIBRIUM ITERATIONS.

 TIME INCREMENT COMPLETED  7.594E-05,  FRACTION OF STEP COMPLETED  2.178E-04
 STEP TIME COMPLETED       2.178E-04,  TOTAL TIME COMPLETED        2.178E-04


  INCREMENT     8 STARTS. ATTEMPT NUMBER  1, TIME INCREMENT  1.139E-04
 
	SYMMETRIC DIRECT SPARSE SOLVER RUNNING ON
 	1 HOST:        1 MPI RANK  x 1 THREAD
 	NUMBER OF EQUATIONS:     18
 	NUMBER OF RHS:           1
 	NUMBER OF FLOPS:         2.109e+03

     CHECK POINT  START OF SOLVER     

     CHECK POINT  END OF SOLVER       

       ELAPSED USER TIME (SEC)      =   0.0000    
       ELAPSED SYSTEM TIME (SEC)    =   0.0000    
       ELAPSED TOTAL CPU TIME (SEC) =   0.0000    
       ELAPSED WALLCLOCK TIME (SEC) =            0

               CONVERGENCE CHECKS FOR EQUILIBRIUM ITERATION     1


 AVERAGE FORCE                      0.173       TIME AVG. FORCE       5.850E-02
 LARGEST SCALED RESIDUAL FORCE      1.018E-14   AT NODE          3   DOF  1
  CORRESPONDING RESIDUAL FORCE      1.018E-14
 LARGEST INCREMENT OF DISP.         1.139E-05   AT NODE          1   DOF  2
 LARGEST CORRECTION TO DISP.        4.215E-10   AT NODE          3   DOF  1
          THE FORCE     EQUILIBRIUM RESPONSE WAS LINEAR IN THIS INCREMENT
          TIME INCREMENT MAY NOW INCREASE TO    1.709E-04

 ITERATION SUMMARY FOR THE INCREMENT:   1 TOTAL ITERATIONS, OF WHICH
   0 ARE SEVERE DISCONTINUITY ITERATIONS AND  1 ARE EQUILIBRIUM ITERATIONS.

 TIME INCREMENT COMPLETED  1.139E-04,  FRACTION OF STEP COMPLETED  3.317E-04
 STEP TIME COMPLETED       3.317E-04,  TOTAL TIME COMPLETED        3.317E-04


  INCREMENT     9 STARTS. ATTEMPT NUMBER  1, TIME INCREMENT  1.709E-04
 
	SYMMETRIC DIRECT SPARSE SOLVER RUNNING ON
 	1 HOST:        1 MPI RANK  x 1 THREAD
 	NUMBER OF EQUATIONS:     18
 	NUMBER OF RHS:           1
 	NUMBER OF FLOPS:         2.109e+03

     CHECK POINT  START OF SOLVER     

     CHECK POINT  END OF SOLVER       

       ELAPSED USER TIME (SEC)      =   0.0000    
       ELAPSED SYSTEM TIME (SEC)    =   0.0000    
       ELAPSED TOTAL CPU TIME (SEC) =   0.0000    
       ELAPSED WALLCLOCK TIME (SEC) =            0

               CONVERGENCE CHECKS FOR EQUILIBRIUM ITERATION     1


 AVERAGE FORCE                      0.262       TIME AVG. FORCE       8.108E-02
 LARGEST SCALED RESIDUAL FORCE      5.137E-14   AT NODE          3   DOF  1
  CORRESPONDING RESIDUAL FORCE      5.137E-14
 LARGEST INCREMENT OF DISP.         1.709E-05   AT NODE          1   DOF  2
 LARGEST CORRECTION TO DISP.        9.480E-10   AT NODE          2   DOF  1
          THE FORCE     EQUILIBRIUM RESPONSE WAS LINEAR IN THIS INCREMENT
          TIME INCREMENT MAY NOW INCREASE TO    2.563E-04

 ITERATION SUMMARY FOR THE INCREMENT:   1 TOTAL ITERATIONS, OF WHICH
   0 ARE SEVERE DISCONTINUITY ITERATIONS AND  1 ARE EQUILIBRIUM ITERATIONS.

 TIME INCREMENT COMPLETED  1.709E-04,  FRACTION OF STEP COMPLETED  5.026E-04
 STEP TIME COMPLETED       5.026E-04,  TOTAL TIME COMPLETED        5.026E-04


  INCREMENT    10 STARTS. ATTEMPT NUMBER  1, TIME INCREMENT  2.563E-04
 
	SYMMETRIC DIRECT SPARSE SOLVER RUNNING ON
 	1 HOST:        1 MPI RANK  x 1 THREAD
 	NUMBER OF EQUATIONS:     18
 	NUMBER OF RHS:           1
 	NUMBER OF FLOPS:         2.109e+03

     CHECK POINT  START OF SOLVER     

     CHECK POINT  END OF SOLVER       

       ELAPSED USER TIME (SEC)      =   0.0000    
       ELAPSED SYSTEM TIME (SEC)    =   0.0000    
       ELAPSED TOTAL CPU TIME (SEC) =   0.0000    
       ELAPSED WALLCLOCK TIME (SEC) =            0

               CONVERGENCE CHECKS FOR EQUILIBRIUM ITERATION     1


 AVERAGE FORCE                      0.395       TIME AVG. FORCE       0.112    
 LARGEST SCALED RESIDUAL FORCE      2.596E-13   AT NODE          1   DOF  1
  CORRESPONDING RESIDUAL FORCE      2.596E-13
 LARGEST INCREMENT OF DISP.         2.563E-05   AT NODE          1   DOF  2
 LARGEST CORRECTION TO DISP.        2.132E-09   AT NODE          3   DOF  1
          THE FORCE     EQUILIBRIUM RESPONSE WAS LINEAR IN THIS INCREMENT
          TIME INCREMENT MAY NOW INCREASE TO    3.844E-04

 ITERATION SUMMARY FOR THE INCREMENT:   1 TOTAL ITERATIONS, OF WHICH
   0 ARE SEVERE DISCONTINUITY ITERATIONS AND  1 ARE EQUILIBRIUM ITERATIONS.

 TIME INCREMENT COMPLETED  2.563E-04,  FRACTION OF STEP COMPLETED  7.589E-04
 STEP TIME COMPLETED       7.589E-04,  TOTAL TIME COMPLETED        7.589E-04


  INCREMENT    11 STARTS. ATTEMPT NUMBER  1, TIME INCREMENT  3.844E-04
 
	SYMMETRIC DIRECT SPARSE SOLVER RUNNING ON
 	1 HOST:        1 MPI RANK  x 1 THREAD
 	NUMBER OF EQUATIONS:     18
 	NUMBER OF RHS:           1
 	NUMBER OF FLOPS:         2.109e+03

     CHECK POINT  START OF SOLVER     

     CHECK POINT  END OF SOLVER       

       ELAPSED USER TIME (SEC)      =   0.0000    
       ELAPSED SYSTEM TIME (SEC)    =   0.0000    
       ELAPSED TOTAL CPU TIME (SEC) =   0.0000    
       ELAPSED WALLCLOCK TIME (SEC) =            0

               CONVERGENCE CHECKS FOR EQUILIBRIUM ITERATION     1


 AVERAGE FORCE                      0.595       TIME AVG. FORCE       0.156    
 LARGEST SCALED RESIDUAL FORCE      1.313E-12   AT NODE          3   DOF  1
  CORRESPONDING RESIDUAL FORCE      1.313E-12
 LARGEST INCREMENT OF DISP.         3.844E-05   AT NODE          1   DOF  2
 LARGEST CORRECTION TO DISP.        4.794E-09   AT NODE          2   DOF  1
          THE FORCE     EQUILIBRIUM RESPONSE WAS LINEAR IN THIS INCREMENT
          TIME INCREMENT MAY NOW INCREASE TO    5.767E-04

 ITERATION SUMMARY FOR THE INCREMENT:   1 TOTAL ITERATIONS, OF WHICH
   0 ARE SEVERE DISCONTINUITY ITERATIONS AND  1 ARE EQUILIBRIUM ITERATIONS.

 TIME INCREMENT COMPLETED  3.844E-04,  FRACTION OF STEP COMPLETED  1.143E-03
 STEP TIME COMPLETED       1.143E-03,  TOTAL TIME COMPLETED        1.143E-03


  INCREMENT    12 STARTS. ATTEMPT NUMBER  1, TIME INCREMENT  5.767E-04
 
	SYMMETRIC DIRECT SPARSE SOLVER RUNNING ON
 	1 HOST:        1 MPI RANK  x 1 THREAD
 	NUMBER OF EQUATIONS:     18
 	NUMBER OF RHS:           1
 	NUMBER OF FLOPS:         2.109e+03

     CHECK POINT  START OF SOLVER     

     CHECK POINT  END OF SOLVER       

       ELAPSED USER TIME (SEC)      =   0.0000    
       ELAPSED SYSTEM TIME (SEC)    =   0.0000    
       ELAPSED TOTAL CPU TIME (SEC) =   0.0000    
       ELAPSED WALLCLOCK TIME (SEC) =            0

               CONVERGENCE CHECKS FOR EQUILIBRIUM ITERATION     1


 AVERAGE FORCE                      0.894       TIME AVG. FORCE       0.218    
 LARGEST SCALED RESIDUAL FORCE      6.640E-12   AT NODE          2   DOF  1
  CORRESPONDING RESIDUAL FORCE      6.640E-12
 LARGEST INCREMENT OF DISP.         5.767E-05   AT NODE          1   DOF  2
 LARGEST CORRECTION TO DISP.        1.078E-08   AT NODE          1   DOF  3
          THE FORCE     EQUILIBRIUM RESPONSE WAS LINEAR IN THIS INCREMENT
          TIME INCREMENT MAY NOW INCREASE TO    8.650E-04

 ITERATION SUMMARY FOR THE INCREMENT:   1 TOTAL ITERATIONS, OF WHICH
   0 ARE SEVERE DISCONTINUITY ITERATIONS AND  1 ARE EQUILIBRIUM ITERATIONS.

 TIME INCREMENT COMPLETED  5.767E-04,  FRACTION OF STEP COMPLETED  1.720E-03
 STEP TIME COMPLETED       1.720E-03,  TOTAL TIME COMPLETED        1.720E-03


  INCREMENT    13 STARTS. ATTEMPT NUMBER  1, TIME INCREMENT  8.650E-04
 
	SYMMETRIC DIRECT SPARSE SOLVER RUNNING ON
 	1 HOST:        1 MPI RANK  x 1 THREAD
 	NUMBER OF EQUATIONS:     18
 	NUMBER OF RHS:           1
 	NUMBER OF FLOPS:         2.109e+03

     CHECK POINT  START OF SOLVER     

     CHECK POINT  END OF SOLVER       

       ELAPSED USER TIME (SEC)      =   0.0000    
       ELAPSED SYSTEM TIME (SEC)    =   0.0000    
       ELAPSED TOTAL CPU TIME (SEC) =   0.0000    
       ELAPSED WALLCLOCK TIME (SEC) =            0

               CONVERGENCE CHECKS FOR EQUILIBRIUM ITERATION     1


 AVERAGE FORCE                      0.335       TIME AVG. FORCE       0.227    
 LARGEST SCALED RESIDUAL FORCE      9.761E-02   AT NODE          4   DOF  1
  CORRESPONDING RESIDUAL FORCE      9.761E-02
 LARGEST INCREMENT OF DISP.         8.650E-05   AT NODE          1   DOF  2
 LARGEST CORRECTION TO DISP.       -3.387E-05   AT NODE          4   DOF  1
          FORCE     EQUILIBRIUM NOT ACHIEVED WITHIN TOLERANCE.
 
	SYMMETRIC DIRECT SPARSE SOLVER RUNNING ON
 	1 HOST:        1 MPI RANK  x 1 THREAD
 	NUMBER OF EQUATIONS:     18
 	NUMBER OF RHS:           1
 	NUMBER OF FLOPS:         2.109e+03

     CHECK POINT  START OF SOLVER     

     CHECK POINT  END OF SOLVER       

       ELAPSED USER TIME (SEC)      =   0.0000    
       ELAPSED SYSTEM TIME (SEC)    =   0.0000    
       ELAPSED TOTAL CPU TIME (SEC) =   0.0000    
       ELAPSED WALLCLOCK TIME (SEC) =            0

               CONVERGENCE CHECKS FOR EQUILIBRIUM ITERATION     2


 AVERAGE FORCE                      0.362       TIME AVG. FORCE       0.229    
 LARGEST SCALED RESIDUAL FORCE     -7.443E-02   AT NODE          2   DOF  1
  CORRESPONDING RESIDUAL FORCE     -7.443E-02
 LARGEST INCREMENT OF DISP.         8.650E-05   AT NODE          1   DOF  2
 LARGEST CORRECTION TO DISP.        3.173E-05   AT NODE          4   DOF  1
          FORCE     EQUILIBRIUM NOT ACHIEVED WITHIN TOLERANCE.
 
	SYMMETRIC DIRECT SPARSE SOLVER RUNNING ON
 	1 HOST:        1 MPI RANK  x 1 THREAD
 	NUMBER OF EQUATIONS:     18
 	NUMBER OF RHS:           1
 	NUMBER OF FLOPS:         2.109e+03

     CHECK POINT  START OF SOLVER     

     CHECK POINT  END OF SOLVER       

       ELAPSED USER TIME (SEC)      =   0.0000    
       ELAPSED SYSTEM TIME (SEC)    =   0.0000    
       ELAPSED TOTAL CPU TIME (SEC) =   0.0000    
       ELAPSED WALLCLOCK TIME (SEC) =            0

               CONVERGENCE CHECKS FOR EQUILIBRIUM ITERATION     3


 AVERAGE FORCE                      0.324       TIME AVG. FORCE       0.226    
 LARGEST SCALED RESIDUAL FORCE      5.888E-02   AT NODE          2   DOF  1
  CORRESPONDING RESIDUAL FORCE      5.888E-02
 LARGEST INCREMENT OF DISP.         8.650E-05   AT NODE          1   DOF  2
 LARGEST CORRECTION TO DISP.       -2.638E-05   AT NODE          2   DOF  1
          FORCE     EQUILIBRIUM NOT ACHIEVED WITHIN TOLERANCE.
 
	SYMMETRIC DIRECT SPARSE SOLVER RUNNING ON
 	1 HOST:        1 MPI RANK  x 1 THREAD
 	NUMBER OF EQUATIONS:     18
 	NUMBER OF RHS:           1
 	NUMBER OF FLOPS:         2.109e+03

     CHECK POINT  START OF SOLVER     

     CHECK POINT  END OF SOLVER       

       ELAPSED USER TIME (SEC)      =   0.0000    
       ELAPSED SYSTEM TIME (SEC)    =   0.0000    
       ELAPSED TOTAL CPU TIME (SEC) =   0.0000    
       ELAPSED WALLCLOCK TIME (SEC) =            0

               CONVERGENCE CHECKS FOR EQUILIBRIUM ITERATION     4


 AVERAGE FORCE                      0.339       TIME AVG. FORCE       0.227    
 LARGEST SCALED RESIDUAL FORCE     -4.654E-02   AT NODE          2   DOF  1
  CORRESPONDING RESIDUAL FORCE     -4.654E-02
 LARGEST INCREMENT OF DISP.         8.650E-05   AT NODE          1   DOF  2
 LARGEST CORRECTION TO DISP.        2.167E-05   AT NODE          2   DOF  1
          FORCE     EQUILIBRIUM NOT ACHIEVED WITHIN TOLERANCE.
 
	SYMMETRIC DIRECT SPARSE SOLVER RUNNING ON
 	1 HOST:        1 MPI RANK  x 1 THREAD
 	NUMBER OF EQUATIONS:     18
 	NUMBER OF RHS:           1
 	NUMBER OF FLOPS:         2.109e+03

     CHECK POINT  START OF SOLVER     

     CHECK POINT  END OF SOLVER       

       ELAPSED USER TIME (SEC)      =   0.0000    
       ELAPSED SYSTEM TIME (SEC)    =   0.0000    
       ELAPSED TOTAL CPU TIME (SEC) =   0.0000    
       ELAPSED WALLCLOCK TIME (SEC) =            0

               CONVERGENCE CHECKS FOR EQUILIBRIUM ITERATION     5


 AVERAGE FORCE                      0.319       TIME AVG. FORCE       0.226    
 LARGEST SCALED RESIDUAL FORCE      3.673E-02   AT NODE          2   DOF  1
  CORRESPONDING RESIDUAL FORCE      3.673E-02
 LARGEST INCREMENT OF DISP.         8.650E-05   AT NODE          1   DOF  2
 LARGEST CORRECTION TO DISP.       -1.745E-05   AT NODE          2   DOF  1
          FORCE     EQUILIBRIUM NOT ACHIEVED WITHIN TOLERANCE.
 
	SYMMETRIC DIRECT SPARSE SOLVER RUNNING ON
 	1 HOST:        1 MPI RANK  x 1 THREAD
 	NUMBER OF EQUATIONS:     18
 	NUMBER OF RHS:           1
 	NUMBER OF FLOPS:         2.109e+03

     CHECK POINT  START OF SOLVER     

     CHECK POINT  END OF SOLVER       

       ELAPSED USER TIME (SEC)      =   0.0000    
       ELAPSED SYSTEM TIME (SEC)    =   0.0000    
       ELAPSED TOTAL CPU TIME (SEC) =   0.0000    
       ELAPSED WALLCLOCK TIME (SEC) =            0

               CONVERGENCE CHECKS FOR EQUILIBRIUM ITERATION     6


 AVERAGE FORCE                      0.328       TIME AVG. FORCE       0.226    
 LARGEST SCALED RESIDUAL FORCE     -2.869E-02   AT NODE          2   DOF  1
  CORRESPONDING RESIDUAL FORCE     -2.869E-02
 LARGEST INCREMENT OF DISP.         8.650E-05   AT NODE          1   DOF  2
 LARGEST CORRECTION TO DISP.        1.383E-05   AT NODE          2   DOF  1
          FORCE     EQUILIBRIUM NOT ACHIEVED WITHIN TOLERANCE.
 
	SYMMETRIC DIRECT SPARSE SOLVER RUNNING ON
 	1 HOST:        1 MPI RANK  x 1 THREAD
 	NUMBER OF EQUATIONS:     18
 	NUMBER OF RHS:           1
 	NUMBER OF FLOPS:         2.109e+03

     CHECK POINT  START OF SOLVER     

     CHECK POINT  END OF SOLVER       

       ELAPSED USER TIME (SEC)      =   0.0000    
       ELAPSED SYSTEM TIME (SEC)    =   0.0000    
       ELAPSED TOTAL CPU TIME (SEC) =   0.0000    
       ELAPSED WALLCLOCK TIME (SEC) =            0

               CONVERGENCE CHECKS FOR EQUILIBRIUM ITERATION     7


 AVERAGE FORCE                      0.316       TIME AVG. FORCE       0.225    
 LARGEST SCALED RESIDUAL FORCE      2.253E-02   AT NODE          2   DOF  1
  CORRESPONDING RESIDUAL FORCE      2.253E-02
 LARGEST INCREMENT OF DISP.         8.650E-05   AT NODE          1   DOF  2
 LARGEST CORRECTION TO DISP.       -1.090E-05   AT NODE          2   DOF  1
          FORCE     EQUILIBRIUM NOT ACHIEVED WITHIN TOLERANCE.
 
	SYMMETRIC DIRECT SPARSE SOLVER RUNNING ON
 	1 HOST:        1 MPI RANK  x 1 THREAD
 	NUMBER OF EQUATIONS:     18
 	NUMBER OF RHS:           1
 	NUMBER OF FLOPS:         2.109e+03

     CHECK POINT  START OF SOLVER     

     CHECK POINT  END OF SOLVER       

       ELAPSED USER TIME (SEC)      =   0.0000    
       ELAPSED SYSTEM TIME (SEC)    =   0.0000    
       ELAPSED TOTAL CPU TIME (SEC) =   0.0000    
       ELAPSED WALLCLOCK TIME (SEC) =            0

               CONVERGENCE CHECKS FOR EQUILIBRIUM ITERATION     8


 AVERAGE FORCE                      0.321       TIME AVG. FORCE       0.226    
 LARGEST SCALED RESIDUAL FORCE     -1.757E-02   AT NODE          2   DOF  1
  CORRESPONDING RESIDUAL FORCE     -1.757E-02
 LARGEST INCREMENT OF DISP.         8.650E-05   AT NODE          1   DOF  2
 LARGEST CORRECTION TO DISP.        8.543E-06   AT NODE          2   DOF  1
          FORCE     EQUILIBRIUM NOT ACHIEVED WITHIN TOLERANCE.
 
	SYMMETRIC DIRECT SPARSE SOLVER RUNNING ON
 	1 HOST:        1 MPI RANK  x 1 THREAD
 	NUMBER OF EQUATIONS:     18
 	NUMBER OF RHS:           1
 	NUMBER OF FLOPS:         2.109e+03

     CHECK POINT  START OF SOLVER     

     CHECK POINT  END OF SOLVER       

       ELAPSED USER TIME (SEC)      =   0.0000    
       ELAPSED SYSTEM TIME (SEC)    =   0.0000    
       ELAPSED TOTAL CPU TIME (SEC) =   0.0000    
       ELAPSED WALLCLOCK TIME (SEC) =            0

               CONVERGENCE CHECKS FOR EQUILIBRIUM ITERATION     9


 AVERAGE FORCE                      0.314       TIME AVG. FORCE       0.225    
 LARGEST SCALED RESIDUAL FORCE      1.375E-02   AT NODE          2   DOF  1
  CORRESPONDING RESIDUAL FORCE      1.375E-02
 LARGEST INCREMENT OF DISP.         8.650E-05   AT NODE          1   DOF  2
 LARGEST CORRECTION TO DISP.       -6.691E-06   AT NODE          2   DOF  1
          FORCE     EQUILIBRIUM NOT ACHIEVED WITHIN TOLERANCE.
 
	SYMMETRIC DIRECT SPARSE SOLVER RUNNING ON
 	1 HOST:        1 MPI RANK  x 1 THREAD
 	NUMBER OF EQUATIONS:     18
 	NUMBER OF RHS:           1
 	NUMBER OF FLOPS:         2.109e+03

     CHECK POINT  START OF SOLVER     

     CHECK POINT  END OF SOLVER       

       ELAPSED USER TIME (SEC)      =   0.0000    
       ELAPSED SYSTEM TIME (SEC)    =   0.0000    
       ELAPSED TOTAL CPU TIME (SEC) =   0.0000    
       ELAPSED WALLCLOCK TIME (SEC) =            0

               CONVERGENCE CHECKS FOR EQUILIBRIUM ITERATION    10


 AVERAGE FORCE                      0.317       TIME AVG. FORCE       0.226    
 LARGEST SCALED RESIDUAL FORCE     -1.073E-02   AT NODE          2   DOF  1
  CORRESPONDING RESIDUAL FORCE     -1.073E-02
 LARGEST INCREMENT OF DISP.         8.650E-05   AT NODE          1   DOF  2
 LARGEST CORRECTION TO DISP.        5.230E-06   AT NODE          2   DOF  1
          FORCE     EQUILIBRIUM NOT ACHIEVED WITHIN TOLERANCE.
 
	SYMMETRIC DIRECT SPARSE SOLVER RUNNING ON
 	1 HOST:        1 MPI RANK  x 1 THREAD
 	NUMBER OF EQUATIONS:     18
 	NUMBER OF RHS:           1
 	NUMBER OF FLOPS:         2.109e+03

     CHECK POINT  START OF SOLVER     

     CHECK POINT  END OF SOLVER       

       ELAPSED USER TIME (SEC)      =   0.0000    
       ELAPSED SYSTEM TIME (SEC)    =   0.0000    
       ELAPSED TOTAL CPU TIME (SEC) =   0.0000    
       ELAPSED WALLCLOCK TIME (SEC) =            0

               CONVERGENCE CHECKS FOR EQUILIBRIUM ITERATION    11


 AVERAGE FORCE                      0.313       TIME AVG. FORCE       0.225    
 LARGEST SCALED RESIDUAL FORCE      8.388E-03   AT NODE          2   DOF  1
  CORRESPONDING RESIDUAL FORCE      8.388E-03
 LARGEST INCREMENT OF DISP.         8.650E-05   AT NODE          1   DOF  2
 LARGEST CORRECTION TO DISP.       -4.088E-06   AT NODE          2   DOF  1
          FORCE     EQUILIBRIUM NOT ACHIEVED WITHIN TOLERANCE.
 
	SYMMETRIC DIRECT SPARSE SOLVER RUNNING ON
 	1 HOST:        1 MPI RANK  x 1 THREAD
 	NUMBER OF EQUATIONS:     18
 	NUMBER OF RHS:           1
 	NUMBER OF FLOPS:         2.109e+03

     CHECK POINT  START OF SOLVER     

     CHECK POINT  END OF SOLVER       

       ELAPSED USER TIME (SEC)      =   0.0000    
       ELAPSED SYSTEM TIME (SEC)    =   0.0000    
       ELAPSED TOTAL CPU TIME (SEC) =   0.0000    
       ELAPSED WALLCLOCK TIME (SEC) =            0

               CONVERGENCE CHECKS FOR EQUILIBRIUM ITERATION    12


 AVERAGE FORCE                      0.315       TIME AVG. FORCE       0.225    
 LARGEST SCALED RESIDUAL FORCE     -6.543E-03   AT NODE          2   DOF  1
  CORRESPONDING RESIDUAL FORCE     -6.543E-03
 LARGEST INCREMENT OF DISP.         8.650E-05   AT NODE          1   DOF  2
 LARGEST CORRECTION TO DISP.        3.193E-06   AT NODE          2   DOF  1
          FORCE     EQUILIBRIUM NOT ACHIEVED WITHIN TOLERANCE.
 
	SYMMETRIC DIRECT SPARSE SOLVER RUNNING ON
 	1 HOST:        1 MPI RANK  x 1 THREAD
 	NUMBER OF EQUATIONS:     18
 	NUMBER OF RHS:           1
 	NUMBER OF FLOPS:         2.109e+03

     CHECK POINT  START OF SOLVER     

     CHECK POINT  END OF SOLVER       

       ELAPSED USER TIME (SEC)      =   0.0000    
       ELAPSED SYSTEM TIME (SEC)    =   0.0000    
       ELAPSED TOTAL CPU TIME (SEC) =   0.0000    
       ELAPSED WALLCLOCK TIME (SEC) =            0

               CONVERGENCE CHECKS FOR EQUILIBRIUM ITERATION    13


 AVERAGE FORCE                      0.312       TIME AVG. FORCE       0.225    
 LARGEST SCALED RESIDUAL FORCE      5.114E-03   AT NODE          2   DOF  1
  CORRESPONDING RESIDUAL FORCE      5.114E-03
 LARGEST INCREMENT OF DISP.         8.650E-05   AT NODE          1   DOF  2
 LARGEST CORRECTION TO DISP.       -2.494E-06   AT NODE          2   DOF  1
          FORCE     EQUILIBRIUM NOT ACHIEVED WITHIN TOLERANCE.
 
	SYMMETRIC DIRECT SPARSE SOLVER RUNNING ON
 	1 HOST:        1 MPI RANK  x 1 THREAD
 	NUMBER OF EQUATIONS:     18
 	NUMBER OF RHS:           1
 	NUMBER OF FLOPS:         2.109e+03

     CHECK POINT  START OF SOLVER     

     CHECK POINT  END OF SOLVER       

       ELAPSED USER TIME (SEC)      =   0.0000    
       ELAPSED SYSTEM TIME (SEC)    =   0.0000    
       ELAPSED TOTAL CPU TIME (SEC) =   0.0000    
       ELAPSED WALLCLOCK TIME (SEC) =            0

               CONVERGENCE CHECKS FOR EQUILIBRIUM ITERATION    14


 AVERAGE FORCE                      0.314       TIME AVG. FORCE       0.225    
 LARGEST SCALED RESIDUAL FORCE     -3.990E-03   AT NODE          2   DOF  1
  CORRESPONDING RESIDUAL FORCE     -3.990E-03
 LARGEST INCREMENT OF DISP.         8.650E-05   AT NODE          1   DOF  2
 LARGEST CORRECTION TO DISP.        1.947E-06   AT NODE          2   DOF  1
          DISP.    CORRECTION TOO LARGE COMPARED TO DISP.    INCREMENT
 
	SYMMETRIC DIRECT SPARSE SOLVER RUNNING ON
 	1 HOST:        1 MPI RANK  x 1 THREAD
 	NUMBER OF EQUATIONS:     18
 	NUMBER OF RHS:           1
 	NUMBER OF FLOPS:         2.109e+03

     CHECK POINT  START OF SOLVER     

     CHECK POINT  END OF SOLVER       

       ELAPSED USER TIME (SEC)      =   0.0000    
       ELAPSED SYSTEM TIME (SEC)    =   0.0000    
       ELAPSED TOTAL CPU TIME (SEC) =   0.0000    
       ELAPSED WALLCLOCK TIME (SEC) =            0

               CONVERGENCE CHECKS FOR EQUILIBRIUM ITERATION    15


 AVERAGE FORCE                      0.312       TIME AVG. FORCE       0.225    
 LARGEST SCALED RESIDUAL FORCE      3.117E-03   AT NODE          2   DOF  1
  CORRESPONDING RESIDUAL FORCE      3.117E-03
 LARGEST INCREMENT OF DISP.         8.650E-05   AT NODE          1   DOF  2
 LARGEST CORRECTION TO DISP.       -1.521E-06   AT NODE          2   DOF  1
          DISP.    CORRECTION TOO LARGE COMPARED TO DISP.    INCREMENT
 
	SYMMETRIC DIRECT SPARSE SOLVER RUNNING ON
 	1 HOST:        1 MPI RANK  x 1 THREAD
 	NUMBER OF EQUATIONS:     18
 	NUMBER OF RHS:           1
 	NUMBER OF FLOPS:         2.109e+03

     CHECK POINT  START OF SOLVER     

     CHECK POINT  END OF SOLVER       

       ELAPSED USER TIME (SEC)      =   0.0000    
       ELAPSED SYSTEM TIME (SEC)    =   0.0000    
       ELAPSED TOTAL CPU TIME (SEC) =   0.0000    
       ELAPSED WALLCLOCK TIME (SEC) =            0

               CONVERGENCE CHECKS FOR EQUILIBRIUM ITERATION    16


 AVERAGE FORCE                      0.313       TIME AVG. FORCE       0.225    
 LARGEST SCALED RESIDUAL FORCE     -2.433E-03   AT NODE          2   DOF  1
  CORRESPONDING RESIDUAL FORCE     -2.433E-03
 LARGEST INCREMENT OF DISP.         8.650E-05   AT NODE          1   DOF  2
 LARGEST CORRECTION TO DISP.        1.187E-06   AT NODE          2   DOF  1
          DISP.    CORRECTION TOO LARGE COMPARED TO DISP.    INCREMENT
 

 ***NOTE: THE SOLUTION FAILS TO CONVERGE IN THE MAXIMUM NUMBER OF EQUILIBRIUM 
          ITERATIONS ALLOWED.


  INCREMENT    13 STARTS. ATTEMPT NUMBER  2, TIME INCREMENT  2.162E-04
 
	SYMMETRIC DIRECT SPARSE SOLVER RUNNING ON
 	1 HOST:        1 MPI RANK  x 1 THREAD
 	NUMBER OF EQUATIONS:     18
 	NUMBER OF RHS:           1
 	NUMBER OF FLOPS:         2.109e+03

     CHECK POINT  START OF SOLVER     

     CHECK POINT  END OF SOLVER       

       ELAPSED USER TIME (SEC)      =   0.0000    
       ELAPSED SYSTEM TIME (SEC)    =   0.0000    
       ELAPSED TOTAL CPU TIME (SEC) =   0.0000    
       ELAPSED WALLCLOCK TIME (SEC) =            0

               CONVERGENCE CHECKS FOR EQUILIBRIUM ITERATION     1


 AVERAGE FORCE                      0.309       TIME AVG. FORCE       0.225    
 LARGEST SCALED RESIDUAL FORCE      4.885E-03   AT NODE          4   DOF  1
  CORRESPONDING RESIDUAL FORCE      4.885E-03
 LARGEST INCREMENT OF DISP.         2.162E-05   AT NODE          1   DOF  2
 LARGEST CORRECTION TO DISP.       -4.081E-06   AT NODE          4   DOF  1
          FORCE     EQUILIBRIUM NOT ACHIEVED WITHIN TOLERANCE.
 
	SYMMETRIC DIRECT SPARSE SOLVER RUNNING ON
 	1 HOST:        1 MPI RANK  x 1 THREAD
 	NUMBER OF EQUATIONS:     18
 	NUMBER OF RHS:           1
 	NUMBER OF FLOPS:         2.109e+03

     CHECK POINT  START OF SOLVER     

     CHECK POINT  END OF SOLVER       

       ELAPSED USER TIME (SEC)      =   0.0000    
       ELAPSED SYSTEM TIME (SEC)    =   0.0000    
       ELAPSED TOTAL CPU TIME (SEC) =   0.0000    
       ELAPSED WALLCLOCK TIME (SEC) =            0

               CONVERGENCE CHECKS FOR EQUILIBRIUM ITERATION     2


 AVERAGE FORCE                      0.308       TIME AVG. FORCE       0.225    
 LARGEST SCALED RESIDUAL FORCE     -9.940E-04   AT NODE          2   DOF  1
  CORRESPONDING RESIDUAL FORCE     -9.940E-04
 LARGEST INCREMENT OF DISP.         2.162E-05   AT NODE          1   DOF  2
 LARGEST CORRECTION TO DISP.        1.013E-06   AT NODE          4   DOF  1
 ESTIMATE OF DISP.    CORRECTION   -2.060E-07
 FORCE     EQUILIB. ACCEPTED BASED ON SMALL RESIDUAL AND ESTIMATED CORRECTION
          TIME INCREMENT MAY NOW INCREASE TO    3.244E-04

 ITERATION SUMMARY FOR THE INCREMENT:   2 TOTAL ITERATIONS, OF WHICH
   0 ARE SEVERE DISCONTINUITY ITERATIONS AND  2 ARE EQUILIBRIUM ITERATIONS.

 TIME INCREMENT COMPLETED  2.162E-04,  FRACTION OF STEP COMPLETED  1.936E-03
 STEP TIME COMPLETED       1.936E-03,  TOTAL TIME COMPLETED        1.936E-03


  INCREMENT    14 STARTS. ATTEMPT NUMBER  1, TIME INCREMENT  3.244E-04
 
	SYMMETRIC DIRECT SPARSE SOLVER RUNNING ON
 	1 HOST:        1 MPI RANK  x 1 THREAD
 	NUMBER OF EQUATIONS:     18
 	NUMBER OF RHS:           1
 	NUMBER OF FLOPS:         2.109e+03

     CHECK POINT  START OF SOLVER     

     CHECK POINT  END OF SOLVER       

       ELAPSED USER TIME (SEC)      =   0.0000    
       ELAPSED SYSTEM TIME (SEC)    =   0.0000    
       ELAPSED TOTAL CPU TIME (SEC) =   0.0000    
       ELAPSED WALLCLOCK TIME (SEC) =            0

               CONVERGENCE CHECKS FOR EQUILIBRIUM ITERATION     1


 AVERAGE FORCE                      0.311       TIME AVG. FORCE       0.231    
 LARGEST SCALED RESIDUAL FORCE      5.261E-03   AT NODE          4   DOF  1
  CORRESPONDING RESIDUAL FORCE      5.261E-03
 LARGEST INCREMENT OF DISP.         3.244E-05   AT NODE          1   DOF  2
 LARGEST CORRECTION TO DISP.       -2.962E-06   AT NODE          4   DOF  1
          FORCE     EQUILIBRIUM NOT ACHIEVED WITHIN TOLERANCE.
 
	SYMMETRIC DIRECT SPARSE SOLVER RUNNING ON
 	1 HOST:        1 MPI RANK  x 1 THREAD
 	NUMBER OF EQUATIONS:     18
 	NUMBER OF RHS:           1
 	NUMBER OF FLOPS:         2.109e+03

     CHECK POINT  START OF SOLVER     

     CHECK POINT  END OF SOLVER       

       ELAPSED USER TIME (SEC)      =   0.0000    
       ELAPSED SYSTEM TIME (SEC)    =   0.0000    
       ELAPSED TOTAL CPU TIME (SEC) =   0.0000    
       ELAPSED WALLCLOCK TIME (SEC) =            0

               CONVERGENCE CHECKS FOR EQUILIBRIUM ITERATION     2


 AVERAGE FORCE                      0.311       TIME AVG. FORCE       0.231    
 LARGEST SCALED RESIDUAL FORCE     -2.368E-03   AT NODE          2   DOF  1
  CORRESPONDING RESIDUAL FORCE     -2.368E-03
 LARGEST INCREMENT OF DISP.         3.244E-05   AT NODE          1   DOF  2
 LARGEST CORRECTION TO DISP.        1.625E-06   AT NODE          2   DOF  1
          FORCE     EQUILIBRIUM NOT ACHIEVED WITHIN TOLERANCE.
 
	SYMMETRIC DIRECT SPARSE SOLVER RUNNING ON
 	1 HOST:        1 MPI RANK  x 1 THREAD
 	NUMBER OF EQUATIONS:     18
 	NUMBER OF RHS:           1
 	NUMBER OF FLOPS:         2.109e+03

     CHECK POINT  START OF SOLVER     

     CHECK POINT  END OF SOLVER       

       ELAPSED USER TIME (SEC)      =   0.0000    
       ELAPSED SYSTEM TIME (SEC)    =   0.0000    
       ELAPSED TOTAL CPU TIME (SEC) =   0.0000    
       ELAPSED WALLCLOCK TIME (SEC) =            0

               CONVERGENCE CHECKS FOR EQUILIBRIUM ITERATION     3


 AVERAGE FORCE                      0.310       TIME AVG. FORCE       0.231    
 LARGEST SCALED RESIDUAL FORCE      1.079E-03   AT NODE          2   DOF  1
  CORRESPONDING RESIDUAL FORCE      1.079E-03
 LARGEST INCREMENT OF DISP.         3.244E-05   AT NODE          1   DOF  2
 LARGEST CORRECTION TO DISP.       -8.539E-07   AT NODE          2   DOF  1
          DISP.    CORRECTION TOO LARGE COMPARED TO DISP.    INCREMENT
 
	SYMMETRIC DIRECT SPARSE SOLVER RUNNING ON
 	1 HOST:        1 MPI RANK  x 1 THREAD
 	NUMBER OF EQUATIONS:     18
 	NUMBER OF RHS:           1
 	NUMBER OF FLOPS:         2.109e+03

     CHECK POINT  START OF SOLVER     

     CHECK POINT  END OF SOLVER       

       ELAPSED USER TIME (SEC)      =   0.0000    
       ELAPSED SYSTEM TIME (SEC)    =   0.0000    
       ELAPSED TOTAL CPU TIME (SEC) =   0.0000    
       ELAPSED WALLCLOCK TIME (SEC) =            0

               CONVERGENCE CHECKS FOR EQUILIBRIUM ITERATION     4


 AVERAGE FORCE                      0.310       TIME AVG. FORCE       0.231    
 LARGEST SCALED RESIDUAL FORCE     -5.034E-04   AT NODE          2   DOF  1
  CORRESPONDING RESIDUAL FORCE     -5.034E-04
 LARGEST INCREMENT OF DISP.         3.244E-05   AT NODE          1   DOF  2
 LARGEST CORRECTION TO DISP.        4.195E-07   AT NODE          2   DOF  1
 ESTIMATE OF DISP.    CORRECTION   -1.956E-07
 FORCE     EQUILIB. ACCEPTED BASED ON SMALL RESIDUAL AND ESTIMATED CORRECTION
          TIME INCREMENT MAY NOW INCREASE TO    4.865E-04

 ITERATION SUMMARY FOR THE INCREMENT:   4 TOTAL ITERATIONS, OF WHICH
   0 ARE SEVERE DISCONTINUITY ITERATIONS AND  4 ARE EQUILIBRIUM ITERATIONS.

 TIME INCREMENT COMPLETED  3.244E-04,  FRACTION OF STEP COMPLETED  2.261E-03
 STEP TIME COMPLETED       2.261E-03,  TOTAL TIME COMPLETED        2.261E-03


  INCREMENT    15 STARTS. ATTEMPT NUMBER  1, TIME INCREMENT  4.865E-04
 
	SYMMETRIC DIRECT SPARSE SOLVER RUNNING ON
 	1 HOST:        1 MPI RANK  x 1 THREAD
 	NUMBER OF EQUATIONS:     18
 	NUMBER OF RHS:           1
 	NUMBER OF FLOPS:         2.109e+03

     CHECK POINT  START OF SOLVER     

     CHECK POINT  END OF SOLVER       

       ELAPSED USER TIME (SEC)      =   0.0000    
       ELAPSED SYSTEM TIME (SEC)    =   0.0000    
       ELAPSED TOTAL CPU TIME (SEC) =   0.0000    
       ELAPSED WALLCLOCK TIME (SEC) =            0

               CONVERGENCE CHECKS FOR EQUILIBRIUM ITERATION     1


 AVERAGE FORCE                      0.312       TIME AVG. FORCE       0.236    
 LARGEST SCALED RESIDUAL FORCE     -2.229E-04   AT NODE          5   DOF  3
  CORRESPONDING RESIDUAL FORCE     -2.229E-04
 LARGEST INCREMENT OF DISP.         4.865E-05   AT NODE          1   DOF  2
 LARGEST CORRECTION TO DISP.        1.736E-07   AT NODE          5   DOF  3
          THE FORCE     EQUILIBRIUM EQUATIONS HAVE CONVERGED
          TIME INCREMENT MAY NOW INCREASE TO    7.298E-04

 ITERATION SUMMARY FOR THE INCREMENT:   1 TOTAL ITERATIONS, OF WHICH
   0 ARE SEVERE DISCONTINUITY ITERATIONS AND  1 ARE EQUILIBRIUM ITERATIONS.

 TIME INCREMENT COMPLETED  4.865E-04,  FRACTION OF STEP COMPLETED  2.747E-03
 STEP TIME COMPLETED       2.747E-03,  TOTAL TIME COMPLETED        2.747E-03


  INCREMENT    16 STARTS. ATTEMPT NUMBER  1, TIME INCREMENT  7.298E-04
 
	SYMMETRIC DIRECT SPARSE SOLVER RUNNING ON
 	1 HOST:        1 MPI RANK  x 1 THREAD
 	NUMBER OF EQUATIONS:     18
 	NUMBER OF RHS:           1
 	NUMBER OF FLOPS:         2.109e+03

     CHECK POINT  START OF SOLVER     

     CHECK POINT  END OF SOLVER       

       ELAPSED USER TIME (SEC)      =   0.0000    
       ELAPSED SYSTEM TIME (SEC)    =   0.0000    
       ELAPSED TOTAL CPU TIME (SEC) =   0.0000    
       ELAPSED WALLCLOCK TIME (SEC) =            0

               CONVERGENCE CHECKS FOR EQUILIBRIUM ITERATION     1


 AVERAGE FORCE                      0.330       TIME AVG. FORCE       0.242    
 LARGEST SCALED RESIDUAL FORCE     -3.618E-04   AT NODE          2   DOF  1
  CORRESPONDING RESIDUAL FORCE     -3.618E-04
 LARGEST INCREMENT OF DISP.         7.298E-05   AT NODE          1   DOF  2
 LARGEST CORRECTION TO DISP.        2.795E-07   AT NODE          2   DOF  1
          THE FORCE     EQUILIBRIUM EQUATIONS HAVE CONVERGED
          TIME INCREMENT MAY NOW INCREASE TO    1.000E-03

 ITERATION SUMMARY FOR THE INCREMENT:   1 TOTAL ITERATIONS, OF WHICH
   0 ARE SEVERE DISCONTINUITY ITERATIONS AND  1 ARE EQUILIBRIUM ITERATIONS.

 TIME INCREMENT COMPLETED  7.298E-04,  FRACTION OF STEP COMPLETED  3.477E-03
 STEP TIME COMPLETED       3.477E-03,  TOTAL TIME COMPLETED        3.477E-03


  INCREMENT    17 STARTS. ATTEMPT NUMBER  1, TIME INCREMENT  1.000E-03
 
	SYMMETRIC DIRECT SPARSE SOLVER RUNNING ON
 	1 HOST:        1 MPI RANK  x 1 THREAD
 	NUMBER OF EQUATIONS:     18
 	NUMBER OF RHS:           1
 	NUMBER OF FLOPS:         2.109e+03

     CHECK POINT  START OF SOLVER     

     CHECK POINT  END OF SOLVER       

       ELAPSED USER TIME (SEC)      =   0.0000    
       ELAPSED SYSTEM TIME (SEC)    =   0.0000    
       ELAPSED TOTAL CPU TIME (SEC) =   0.0000    
       ELAPSED WALLCLOCK TIME (SEC) =            0

               CONVERGENCE CHECKS FOR EQUILIBRIUM ITERATION     1


 AVERAGE FORCE                      0.322       TIME AVG. FORCE       0.247    
 LARGEST SCALED RESIDUAL FORCE     -4.419E-04   AT NODE          5   DOF  3
  CORRESPONDING RESIDUAL FORCE     -4.419E-04
 LARGEST INCREMENT OF DISP.         1.000E-04   AT NODE          1   DOF  2
 LARGEST CORRECTION TO DISP.       -3.329E-07   AT NODE          2   DOF  1
          THE FORCE     EQUILIBRIUM EQUATIONS HAVE CONVERGED

 ITERATION SUMMARY FOR THE INCREMENT:   1 TOTAL ITERATIONS, OF WHICH
   0 ARE SEVERE DISCONTINUITY ITERATIONS AND  1 ARE EQUILIBRIUM ITERATIONS.

 TIME INCREMENT COMPLETED  1.000E-03,  FRACTION OF STEP COMPLETED  4.477E-03
 STEP TIME COMPLETED       4.477E-03,  TOTAL TIME COMPLETED        4.477E-03


  INCREMENT    18 STARTS. ATTEMPT NUMBER  1, TIME INCREMENT  1.000E-03
 
	SYMMETRIC DIRECT SPARSE SOLVER RUNNING ON
 	1 HOST:        1 MPI RANK  x 1 THREAD
 	NUMBER OF EQUATIONS:     18
 	NUMBER OF RHS:           1
 	NUMBER OF FLOPS:         2.109e+03

     CHECK POINT  START OF SOLVER     

     CHECK POINT  END OF SOLVER       

       ELAPSED USER TIME (SEC)      =   0.0000    
       ELAPSED SYSTEM TIME (SEC)    =   0.0000    
       ELAPSED TOTAL CPU TIME (SEC) =   0.0000    
       ELAPSED WALLCLOCK TIME (SEC) =            0

               CONVERGENCE CHECKS FOR EQUILIBRIUM ITERATION     1


 AVERAGE FORCE                      0.342       TIME AVG. FORCE       0.252    
 LARGEST SCALED RESIDUAL FORCE     -1.074E-03   AT NODE          2   DOF  1
  CORRESPONDING RESIDUAL FORCE     -1.074E-03
 LARGEST INCREMENT OF DISP.         1.000E-04   AT NODE          1   DOF  2
 LARGEST CORRECTION TO DISP.        7.717E-07   AT NODE          2   DOF  1
          THE FORCE     EQUILIBRIUM EQUATIONS HAVE CONVERGED

 ITERATION SUMMARY FOR THE INCREMENT:   1 TOTAL ITERATIONS, OF WHICH
   0 ARE SEVERE DISCONTINUITY ITERATIONS AND  1 ARE EQUILIBRIUM ITERATIONS.

 TIME INCREMENT COMPLETED  1.000E-03,  FRACTION OF STEP COMPLETED  5.477E-03
 STEP TIME COMPLETED       5.477E-03,  TOTAL TIME COMPLETED        5.477E-03


  INCREMENT    19 STARTS. ATTEMPT NUMBER  1, TIME INCREMENT  1.000E-03
 
	SYMMETRIC DIRECT SPARSE SOLVER RUNNING ON
 	1 HOST:        1 MPI RANK  x 1 THREAD
 	NUMBER OF EQUATIONS:     18
 	NUMBER OF RHS:           1
 	NUMBER OF FLOPS:         2.109e+03

     CHECK POINT  START OF SOLVER     

     CHECK POINT  END OF SOLVER       

       ELAPSED USER TIME (SEC)      =   0.0000    
       ELAPSED SYSTEM TIME (SEC)    =   0.0000    
       ELAPSED TOTAL CPU TIME (SEC) =   0.0000    
       ELAPSED WALLCLOCK TIME (SEC) =            0

               CONVERGENCE CHECKS FOR EQUILIBRIUM ITERATION     1


 AVERAGE FORCE                      0.333       TIME AVG. FORCE       0.256    
 LARGEST SCALED RESIDUAL FORCE      1.746E-03   AT NODE          2   DOF  1
  CORRESPONDING RESIDUAL FORCE      1.746E-03
 LARGEST INCREMENT OF DISP.         1.000E-04   AT NODE          1   DOF  2
 LARGEST CORRECTION TO DISP.       -1.332E-06   AT NODE          2   DOF  1
          FORCE     EQUILIBRIUM NOT ACHIEVED WITHIN TOLERANCE.
 
	SYMMETRIC DIRECT SPARSE SOLVER RUNNING ON
 	1 HOST:        1 MPI RANK  x 1 THREAD
 	NUMBER OF EQUATIONS:     18
 	NUMBER OF RHS:           1
 	NUMBER OF FLOPS:         2.109e+03

     CHECK POINT  START OF SOLVER     

     CHECK POINT  END OF SOLVER       

       ELAPSED USER TIME (SEC)      =   0.0000    
       ELAPSED SYSTEM TIME (SEC)    =   0.0000    
       ELAPSED TOTAL CPU TIME (SEC) =   0.0000    
       ELAPSED WALLCLOCK TIME (SEC) =            0

               CONVERGENCE CHECKS FOR EQUILIBRIUM ITERATION     2


 AVERAGE FORCE                      0.334       TIME AVG. FORCE       0.256    
 LARGEST SCALED RESIDUAL FORCE     -1.905E-03   AT NODE          2   DOF  1
  CORRESPONDING RESIDUAL FORCE     -1.905E-03
 LARGEST INCREMENT OF DISP.         1.000E-04   AT NODE          1   DOF  2
 LARGEST CORRECTION TO DISP.        1.316E-06   AT NODE          2   DOF  1
          FORCE     EQUILIBRIUM NOT ACHIEVED WITHIN TOLERANCE.
 
	SYMMETRIC DIRECT SPARSE SOLVER RUNNING ON
 	1 HOST:        1 MPI RANK  x 1 THREAD
 	NUMBER OF EQUATIONS:     18
 	NUMBER OF RHS:           1
 	NUMBER OF FLOPS:         2.109e+03

     CHECK POINT  START OF SOLVER     

     CHECK POINT  END OF SOLVER       

       ELAPSED USER TIME (SEC)      =   0.0000    
       ELAPSED SYSTEM TIME (SEC)    =   0.0000    
       ELAPSED TOTAL CPU TIME (SEC) =   0.0000    
       ELAPSED WALLCLOCK TIME (SEC) =            0

               CONVERGENCE CHECKS FOR EQUILIBRIUM ITERATION     3


 AVERAGE FORCE                      0.333       TIME AVG. FORCE       0.256    
 LARGEST SCALED RESIDUAL FORCE      2.113E-03   AT NODE          2   DOF  1
  CORRESPONDING RESIDUAL FORCE      2.113E-03
 LARGEST INCREMENT OF DISP.         1.000E-04   AT NODE          1   DOF  2
 LARGEST CORRECTION TO DISP.       -1.357E-06   AT NODE          2   DOF  1
          FORCE     EQUILIBRIUM NOT ACHIEVED WITHIN TOLERANCE.
 
	SYMMETRIC DIRECT SPARSE SOLVER RUNNING ON
 	1 HOST:        1 MPI RANK  x 1 THREAD
 	NUMBER OF EQUATIONS:     18
 	NUMBER OF RHS:           1
 	NUMBER OF FLOPS:         2.109e+03

     CHECK POINT  START OF SOLVER     

     CHECK POINT  END OF SOLVER       

       ELAPSED USER TIME (SEC)      =   0.0000    
       ELAPSED SYSTEM TIME (SEC)    =   0.0000    
       ELAPSED TOTAL CPU TIME (SEC) =   0.0000    
       ELAPSED WALLCLOCK TIME (SEC) =            0

               CONVERGENCE CHECKS FOR EQUILIBRIUM ITERATION     4


 AVERAGE FORCE                      0.334       TIME AVG. FORCE       0.257    
 LARGEST SCALED RESIDUAL FORCE     -2.338E-03   AT NODE          2   DOF  1
  CORRESPONDING RESIDUAL FORCE     -2.338E-03
 LARGEST INCREMENT OF DISP.         1.000E-04   AT NODE          1   DOF  2
 LARGEST CORRECTION TO DISP.        1.442E-06   AT NODE          2   DOF  1
          FORCE     EQUILIBRIUM NOT ACHIEVED WITHIN TOLERANCE.
 

 ***NOTE: THE SOLUTION APPEARS TO BE DIVERGING. CONVERGENCE IS JUDGED UNLIKELY.


  INCREMENT    19 STARTS. ATTEMPT NUMBER  2, TIME INCREMENT  2.500E-04
 
	SYMMETRIC DIRECT SPARSE SOLVER RUNNING ON
 	1 HOST:        1 MPI RANK  x 1 THREAD
 	NUMBER OF EQUATIONS:     18
 	NUMBER OF RHS:           1
 	NUMBER OF FLOPS:         2.109e+03

     CHECK POINT  START OF SOLVER     

     CHECK POINT  END OF SOLVER       

       ELAPSED USER TIME (SEC)      =   0.0000    
       ELAPSED SYSTEM TIME (SEC)    =   0.0000    
       ELAPSED TOTAL CPU TIME (SEC) =   0.0000    
       ELAPSED WALLCLOCK TIME (SEC) =            0

               CONVERGENCE CHECKS FOR EQUILIBRIUM ITERATION     1


 AVERAGE FORCE                      0.329       TIME AVG. FORCE       0.256    
 LARGEST SCALED RESIDUAL FORCE      4.537E-04   AT NODE          2   DOF  1
  CORRESPONDING RESIDUAL FORCE      4.537E-04
 LARGEST INCREMENT OF DISP.         2.500E-05   AT NODE          1   DOF  2
 LARGEST CORRECTION TO DISP.       -4.993E-07   AT NODE          2   DOF  1
 ESTIMATE OF DISP.    CORRECTION    1.781E-07
 FORCE     EQUILIB. ACCEPTED BASED ON SMALL RESIDUAL AND ESTIMATED CORRECTION
          TIME INCREMENT MAY NOW INCREASE TO    3.750E-04

 ITERATION SUMMARY FOR THE INCREMENT:   1 TOTAL ITERATIONS, OF WHICH
   0 ARE SEVERE DISCONTINUITY ITERATIONS AND  1 ARE EQUILIBRIUM ITERATIONS.

 TIME INCREMENT COMPLETED  2.500E-04,  FRACTION OF STEP COMPLETED  5.727E-03
 STEP TIME COMPLETED       5.727E-03,  TOTAL TIME COMPLETED        5.727E-03


  INCREMENT    20 STARTS. ATTEMPT NUMBER  1, TIME INCREMENT  3.750E-04
 
	SYMMETRIC DIRECT SPARSE SOLVER RUNNING ON
 	1 HOST:        1 MPI RANK  x 1 THREAD
 	NUMBER OF EQUATIONS:     18
 	NUMBER OF RHS:           1
 	NUMBER OF FLOPS:         2.109e+03

     CHECK POINT  START OF SOLVER     

     CHECK POINT  END OF SOLVER       

       ELAPSED USER TIME (SEC)      =   0.0000    
       ELAPSED SYSTEM TIME (SEC)    =   0.0000    
       ELAPSED TOTAL CPU TIME (SEC) =   0.0000    
       ELAPSED WALLCLOCK TIME (SEC) =            0

               CONVERGENCE CHECKS FOR EQUILIBRIUM ITERATION     1


 AVERAGE FORCE                      0.346       TIME AVG. FORCE       0.261    
 LARGEST SCALED RESIDUAL FORCE     -1.251E-03   AT NODE          2   DOF  1
  CORRESPONDING RESIDUAL FORCE     -1.251E-03
 LARGEST INCREMENT OF DISP.         3.750E-05   AT NODE          1   DOF  2
 LARGEST CORRECTION TO DISP.        1.063E-06   AT NODE          2   DOF  1
          DISP.    CORRECTION TOO LARGE COMPARED TO DISP.    INCREMENT
 
	SYMMETRIC DIRECT SPARSE SOLVER RUNNING ON
 	1 HOST:        1 MPI RANK  x 1 THREAD
 	NUMBER OF EQUATIONS:     18
 	NUMBER OF RHS:           1
 	NUMBER OF FLOPS:         2.109e+03

     CHECK POINT  START OF SOLVER     

     CHECK POINT  END OF SOLVER       

       ELAPSED USER TIME (SEC)      =   0.0000    
       ELAPSED SYSTEM TIME (SEC)    =   0.0000    
       ELAPSED TOTAL CPU TIME (SEC) =   0.0000    
       ELAPSED WALLCLOCK TIME (SEC) =            0

               CONVERGENCE CHECKS FOR EQUILIBRIUM ITERATION     2


 AVERAGE FORCE                      0.331       TIME AVG. FORCE       0.260    
 LARGEST SCALED RESIDUAL FORCE      6.250E-04   AT NODE          2   DOF  1
  CORRESPONDING RESIDUAL FORCE      6.250E-04
 LARGEST INCREMENT OF DISP.         3.750E-05   AT NODE          1   DOF  2
 LARGEST CORRECTION TO DISP.       -5.326E-07   AT NODE          2   DOF  1
 ESTIMATE OF DISP.    CORRECTION    2.660E-07
 FORCE     EQUILIB. ACCEPTED BASED ON SMALL RESIDUAL AND ESTIMATED CORRECTION
          TIME INCREMENT MAY NOW INCREASE TO    5.625E-04

 ITERATION SUMMARY FOR THE INCREMENT:   2 TOTAL ITERATIONS, OF WHICH
   0 ARE SEVERE DISCONTINUITY ITERATIONS AND  2 ARE EQUILIBRIUM ITERATIONS.

 TIME INCREMENT COMPLETED  3.750E-04,  FRACTION OF STEP COMPLETED  6.102E-03
 STEP TIME COMPLETED       6.102E-03,  TOTAL TIME COMPLETED        6.102E-03


  INCREMENT    21 STARTS. ATTEMPT NUMBER  1, TIME INCREMENT  5.625E-04
 
	SYMMETRIC DIRECT SPARSE SOLVER RUNNING ON
 	1 HOST:        1 MPI RANK  x 1 THREAD
 	NUMBER OF EQUATIONS:     18
 	NUMBER OF RHS:           1
 	NUMBER OF FLOPS:         2.109e+03

     CHECK POINT  START OF SOLVER     

     CHECK POINT  END OF SOLVER       

       ELAPSED USER TIME (SEC)      =   0.0000    
       ELAPSED SYSTEM TIME (SEC)    =   0.0000    
       ELAPSED TOTAL CPU TIME (SEC) =   0.0000    
       ELAPSED WALLCLOCK TIME (SEC) =            0

               CONVERGENCE CHECKS FOR EQUILIBRIUM ITERATION     1


 AVERAGE FORCE                      0.334       TIME AVG. FORCE       0.264    
 LARGEST SCALED RESIDUAL FORCE     -6.615E-04   AT NODE          2   DOF  1
  CORRESPONDING RESIDUAL FORCE     -6.615E-04
 LARGEST INCREMENT OF DISP.         5.625E-05   AT NODE          1   DOF  2
 LARGEST CORRECTION TO DISP.        4.481E-07   AT NODE          2   DOF  1
          THE FORCE     EQUILIBRIUM EQUATIONS HAVE CONVERGED
          TIME INCREMENT MAY NOW INCREASE TO    8.438E-04

 ITERATION SUMMARY FOR THE INCREMENT:   1 TOTAL ITERATIONS, OF WHICH
   0 ARE SEVERE DISCONTINUITY ITERATIONS AND  1 ARE EQUILIBRIUM ITERATIONS.

 TIME INCREMENT COMPLETED  5.625E-04,  FRACTION OF STEP COMPLETED  6.664E-03
 STEP TIME COMPLETED       6.664E-03,  TOTAL TIME COMPLETED        6.664E-03


  INCREMENT    22 STARTS. ATTEMPT NUMBER  1, TIME INCREMENT  8.438E-04
 
	SYMMETRIC DIRECT SPARSE SOLVER RUNNING ON
 	1 HOST:        1 MPI RANK  x 1 THREAD
 	NUMBER OF EQUATIONS:     18
 	NUMBER OF RHS:           1
 	NUMBER OF FLOPS:         2.109e+03

     CHECK POINT  START OF SOLVER     

     CHECK POINT  END OF SOLVER       

       ELAPSED USER TIME (SEC)      =   0.0000    
       ELAPSED SYSTEM TIME (SEC)    =   0.0000    
       ELAPSED TOTAL CPU TIME (SEC) =   0.0000    
       ELAPSED WALLCLOCK TIME (SEC) =            0

               CONVERGENCE CHECKS FOR EQUILIBRIUM ITERATION     1


 AVERAGE FORCE                      0.339       TIME AVG. FORCE       0.267    
 LARGEST SCALED RESIDUAL FORCE      1.896E-03   AT NODE          2   DOF  1
  CORRESPONDING RESIDUAL FORCE      1.896E-03
 LARGEST INCREMENT OF DISP.         8.438E-05   AT NODE          1   DOF  2
 LARGEST CORRECTION TO DISP.       -1.213E-06   AT NODE          2   DOF  1
          FORCE     EQUILIBRIUM NOT ACHIEVED WITHIN TOLERANCE.
 
	SYMMETRIC DIRECT SPARSE SOLVER RUNNING ON
 	1 HOST:        1 MPI RANK  x 1 THREAD
 	NUMBER OF EQUATIONS:     18
 	NUMBER OF RHS:           1
 	NUMBER OF FLOPS:         2.109e+03

     CHECK POINT  START OF SOLVER     

     CHECK POINT  END OF SOLVER       

       ELAPSED USER TIME (SEC)      =   0.0000    
       ELAPSED SYSTEM TIME (SEC)    =   0.0000    
       ELAPSED TOTAL CPU TIME (SEC) =   0.0000    
       ELAPSED WALLCLOCK TIME (SEC) =            0

               CONVERGENCE CHECKS FOR EQUILIBRIUM ITERATION     2


 AVERAGE FORCE                      0.339       TIME AVG. FORCE       0.267    
 LARGEST SCALED RESIDUAL FORCE     -1.809E-03   AT NODE          2   DOF  1
  CORRESPONDING RESIDUAL FORCE     -1.809E-03
 LARGEST INCREMENT OF DISP.         8.438E-05   AT NODE          1   DOF  2
 LARGEST CORRECTION TO DISP.        1.147E-06   AT NODE          2   DOF  1
          FORCE     EQUILIBRIUM NOT ACHIEVED WITHIN TOLERANCE.
 
	SYMMETRIC DIRECT SPARSE SOLVER RUNNING ON
 	1 HOST:        1 MPI RANK  x 1 THREAD
 	NUMBER OF EQUATIONS:     18
 	NUMBER OF RHS:           1
 	NUMBER OF FLOPS:         2.109e+03

     CHECK POINT  START OF SOLVER     

     CHECK POINT  END OF SOLVER       

       ELAPSED USER TIME (SEC)      =   0.0000    
       ELAPSED SYSTEM TIME (SEC)    =   0.0000    
       ELAPSED TOTAL CPU TIME (SEC) =   0.0000    
       ELAPSED WALLCLOCK TIME (SEC) =            0

               CONVERGENCE CHECKS FOR EQUILIBRIUM ITERATION     3


 AVERAGE FORCE                      0.339       TIME AVG. FORCE       0.267    
 LARGEST SCALED RESIDUAL FORCE      1.732E-03   AT NODE          2   DOF  1
  CORRESPONDING RESIDUAL FORCE      1.732E-03
 LARGEST INCREMENT OF DISP.         8.438E-05   AT NODE          1   DOF  2
 LARGEST CORRECTION TO DISP.       -1.088E-06   AT NODE          2   DOF  1
          FORCE     EQUILIBRIUM NOT ACHIEVED WITHIN TOLERANCE.
 
	SYMMETRIC DIRECT SPARSE SOLVER RUNNING ON
 	1 HOST:        1 MPI RANK  x 1 THREAD
 	NUMBER OF EQUATIONS:     18
 	NUMBER OF RHS:           1
 	NUMBER OF FLOPS:         2.109e+03

     CHECK POINT  START OF SOLVER     

     CHECK POINT  END OF SOLVER       

       ELAPSED USER TIME (SEC)      =   0.0000    
       ELAPSED SYSTEM TIME (SEC)    =   0.0000    
       ELAPSED TOTAL CPU TIME (SEC) =   0.0000    
       ELAPSED WALLCLOCK TIME (SEC) =            0

               CONVERGENCE CHECKS FOR EQUILIBRIUM ITERATION     4


 AVERAGE FORCE                      0.354       TIME AVG. FORCE       0.268    
 LARGEST SCALED RESIDUAL FORCE     -1.657E-03   AT NODE          2   DOF  1
  CORRESPONDING RESIDUAL FORCE     -1.657E-03
 LARGEST INCREMENT OF DISP.         8.438E-05   AT NODE          1   DOF  2
 LARGEST CORRECTION TO DISP.        1.036E-06   AT NODE          2   DOF  1
          FORCE     EQUILIBRIUM NOT ACHIEVED WITHIN TOLERANCE.
 
	SYMMETRIC DIRECT SPARSE SOLVER RUNNING ON
 	1 HOST:        1 MPI RANK  x 1 THREAD
 	NUMBER OF EQUATIONS:     18
 	NUMBER OF RHS:           1
 	NUMBER OF FLOPS:         2.109e+03

     CHECK POINT  START OF SOLVER     

     CHECK POINT  END OF SOLVER       

       ELAPSED USER TIME (SEC)      =   0.0000    
       ELAPSED SYSTEM TIME (SEC)    =   0.0000    
       ELAPSED TOTAL CPU TIME (SEC) =   0.0000    
       ELAPSED WALLCLOCK TIME (SEC) =            0

               CONVERGENCE CHECKS FOR EQUILIBRIUM ITERATION     5


 AVERAGE FORCE                      0.339       TIME AVG. FORCE       0.267    
 LARGEST SCALED RESIDUAL FORCE      1.586E-03   AT NODE          2   DOF  1
  CORRESPONDING RESIDUAL FORCE      1.586E-03
 LARGEST INCREMENT OF DISP.         8.438E-05   AT NODE          1   DOF  2
 LARGEST CORRECTION TO DISP.       -9.882E-07   AT NODE          2   DOF  1
          FORCE     EQUILIBRIUM NOT ACHIEVED WITHIN TOLERANCE.
 
	SYMMETRIC DIRECT SPARSE SOLVER RUNNING ON
 	1 HOST:        1 MPI RANK  x 1 THREAD
 	NUMBER OF EQUATIONS:     18
 	NUMBER OF RHS:           1
 	NUMBER OF FLOPS:         2.109e+03

     CHECK POINT  START OF SOLVER     

     CHECK POINT  END OF SOLVER       

       ELAPSED USER TIME (SEC)      =   0.0000    
       ELAPSED SYSTEM TIME (SEC)    =   0.0000    
       ELAPSED TOTAL CPU TIME (SEC) =   0.0000    
       ELAPSED WALLCLOCK TIME (SEC) =            0

               CONVERGENCE CHECKS FOR EQUILIBRIUM ITERATION     6


 AVERAGE FORCE                      0.339       TIME AVG. FORCE       0.267    
 LARGEST SCALED RESIDUAL FORCE     -1.517E-03   AT NODE          2   DOF  1
  CORRESPONDING RESIDUAL FORCE     -1.517E-03
 LARGEST INCREMENT OF DISP.         8.438E-05   AT NODE          1   DOF  2
 LARGEST CORRECTION TO DISP.        9.440E-07   AT NODE          2   DOF  1
          FORCE     EQUILIBRIUM NOT ACHIEVED WITHIN TOLERANCE.
 
	SYMMETRIC DIRECT SPARSE SOLVER RUNNING ON
 	1 HOST:        1 MPI RANK  x 1 THREAD
 	NUMBER OF EQUATIONS:     18
 	NUMBER OF RHS:           1
 	NUMBER OF FLOPS:         2.109e+03

     CHECK POINT  START OF SOLVER     

     CHECK POINT  END OF SOLVER       

       ELAPSED USER TIME (SEC)      =  0.10000    
       ELAPSED SYSTEM TIME (SEC)    =   0.0000    
       ELAPSED TOTAL CPU TIME (SEC) =  0.10000    
       ELAPSED WALLCLOCK TIME (SEC) =            0

               CONVERGENCE CHECKS FOR EQUILIBRIUM ITERATION     7


 AVERAGE FORCE                      0.339       TIME AVG. FORCE       0.267    
 LARGEST SCALED RESIDUAL FORCE      1.451E-03   AT NODE          2   DOF  1
  CORRESPONDING RESIDUAL FORCE      1.451E-03
 LARGEST INCREMENT OF DISP.         8.438E-05   AT NODE          1   DOF  2
 LARGEST CORRECTION TO DISP.       -9.024E-07   AT NODE          2   DOF  1
          FORCE     EQUILIBRIUM NOT ACHIEVED WITHIN TOLERANCE.
 
	SYMMETRIC DIRECT SPARSE SOLVER RUNNING ON
 	1 HOST:        1 MPI RANK  x 1 THREAD
 	NUMBER OF EQUATIONS:     18
 	NUMBER OF RHS:           1
 	NUMBER OF FLOPS:         2.109e+03

     CHECK POINT  START OF SOLVER     

     CHECK POINT  END OF SOLVER       

       ELAPSED USER TIME (SEC)      =   0.0000    
       ELAPSED SYSTEM TIME (SEC)    =   0.0000    
       ELAPSED TOTAL CPU TIME (SEC) =   0.0000    
       ELAPSED WALLCLOCK TIME (SEC) =            0

               CONVERGENCE CHECKS FOR EQUILIBRIUM ITERATION     8


 AVERAGE FORCE                      0.339       TIME AVG. FORCE       0.267    
 LARGEST SCALED RESIDUAL FORCE     -1.389E-03   AT NODE          2   DOF  1
  CORRESPONDING RESIDUAL FORCE     -1.389E-03
 LARGEST INCREMENT OF DISP.         8.438E-05   AT NODE          1   DOF  2
 LARGEST CORRECTION TO DISP.        8.629E-07   AT NODE          2   DOF  1
          FORCE     EQUILIBRIUM NOT ACHIEVED WITHIN TOLERANCE.
 
	SYMMETRIC DIRECT SPARSE SOLVER RUNNING ON
 	1 HOST:        1 MPI RANK  x 1 THREAD
 	NUMBER OF EQUATIONS:     18
 	NUMBER OF RHS:           1
 	NUMBER OF FLOPS:         2.109e+03

     CHECK POINT  START OF SOLVER     

     CHECK POINT  END OF SOLVER       

       ELAPSED USER TIME (SEC)      =   0.0000    
       ELAPSED SYSTEM TIME (SEC)    =   0.0000    
       ELAPSED TOTAL CPU TIME (SEC) =   0.0000    
       ELAPSED WALLCLOCK TIME (SEC) =            0

               CONVERGENCE CHECKS FOR EQUILIBRIUM ITERATION     9


 AVERAGE FORCE                      0.339       TIME AVG. FORCE       0.267    
 LARGEST SCALED RESIDUAL FORCE      1.328E-03   AT NODE          2   DOF  1
  CORRESPONDING RESIDUAL FORCE      1.328E-03
 LARGEST INCREMENT OF DISP.         8.438E-05   AT NODE          1   DOF  2
 LARGEST CORRECTION TO DISP.       -8.254E-07   AT NODE          2   DOF  1
          THE FORCE     EQUILIBRIUM EQUATIONS HAVE CONVERGED

 ITERATION SUMMARY FOR THE INCREMENT:   9 TOTAL ITERATIONS, OF WHICH
   0 ARE SEVERE DISCONTINUITY ITERATIONS AND  9 ARE EQUILIBRIUM ITERATIONS.

 TIME INCREMENT COMPLETED  8.438E-04,  FRACTION OF STEP COMPLETED  7.508E-03
 STEP TIME COMPLETED       7.508E-03,  TOTAL TIME COMPLETED        7.508E-03


  INCREMENT    23 STARTS. ATTEMPT NUMBER  1, TIME INCREMENT  8.438E-04
 
	SYMMETRIC DIRECT SPARSE SOLVER RUNNING ON
 	1 HOST:        1 MPI RANK  x 1 THREAD
 	NUMBER OF EQUATIONS:     18
 	NUMBER OF RHS:           1
 	NUMBER OF FLOPS:         2.109e+03

     CHECK POINT  START OF SOLVER     

     CHECK POINT  END OF SOLVER       

       ELAPSED USER TIME (SEC)      =   0.0000    
       ELAPSED SYSTEM TIME (SEC)    =   0.0000    
       ELAPSED TOTAL CPU TIME (SEC) =   0.0000    
       ELAPSED WALLCLOCK TIME (SEC) =            0

               CONVERGENCE CHECKS FOR EQUILIBRIUM ITERATION     1


 AVERAGE FORCE                      0.344       TIME AVG. FORCE       0.270    
 LARGEST SCALED RESIDUAL FORCE     -3.057E-03   AT NODE          2   DOF  1
  CORRESPONDING RESIDUAL FORCE     -3.057E-03
 LARGEST INCREMENT OF DISP.         8.437E-05   AT NODE          1   DOF  2
 LARGEST CORRECTION TO DISP.        1.778E-06   AT NODE          2   DOF  1
          FORCE     EQUILIBRIUM NOT ACHIEVED WITHIN TOLERANCE.
 
	SYMMETRIC DIRECT SPARSE SOLVER RUNNING ON
 	1 HOST:        1 MPI RANK  x 1 THREAD
 	NUMBER OF EQUATIONS:     18
 	NUMBER OF RHS:           1
 	NUMBER OF FLOPS:         2.109e+03

     CHECK POINT  START OF SOLVER     

     CHECK POINT  END OF SOLVER       

       ELAPSED USER TIME (SEC)      =   0.0000    
       ELAPSED SYSTEM TIME (SEC)    =   0.0000    
       ELAPSED TOTAL CPU TIME (SEC) =   0.0000    
       ELAPSED WALLCLOCK TIME (SEC) =            0

               CONVERGENCE CHECKS FOR EQUILIBRIUM ITERATION     2


 AVERAGE FORCE                      0.343       TIME AVG. FORCE       0.270    
 LARGEST SCALED RESIDUAL FORCE      2.909E-03   AT NODE          2   DOF  1
  CORRESPONDING RESIDUAL FORCE      2.909E-03
 LARGEST INCREMENT OF DISP.         8.437E-05   AT NODE          1   DOF  2
 LARGEST CORRECTION TO DISP.       -1.738E-06   AT NODE          2   DOF  1
          FORCE     EQUILIBRIUM NOT ACHIEVED WITHIN TOLERANCE.
 
	SYMMETRIC DIRECT SPARSE SOLVER RUNNING ON
 	1 HOST:        1 MPI RANK  x 1 THREAD
 	NUMBER OF EQUATIONS:     18
 	NUMBER OF RHS:           1
 	NUMBER OF FLOPS:         2.109e+03

     CHECK POINT  START OF SOLVER     

     CHECK POINT  END OF SOLVER       

       ELAPSED USER TIME (SEC)      =   0.0000    
       ELAPSED SYSTEM TIME (SEC)    =   0.0000    
       ELAPSED TOTAL CPU TIME (SEC) =   0.0000    
       ELAPSED WALLCLOCK TIME (SEC) =            0

               CONVERGENCE CHECKS FOR EQUILIBRIUM ITERATION     3


 AVERAGE FORCE                      0.344       TIME AVG. FORCE       0.270    
 LARGEST SCALED RESIDUAL FORCE     -2.747E-03   AT NODE          2   DOF  1
  CORRESPONDING RESIDUAL FORCE     -2.747E-03
 LARGEST INCREMENT OF DISP.         8.437E-05   AT NODE          1   DOF  2
 LARGEST CORRECTION TO DISP.        1.676E-06   AT NODE          2   DOF  1
          FORCE     EQUILIBRIUM NOT ACHIEVED WITHIN TOLERANCE.
 
	SYMMETRIC DIRECT SPARSE SOLVER RUNNING ON
 	1 HOST:        1 MPI RANK  x 1 THREAD
 	NUMBER OF EQUATIONS:     18
 	NUMBER OF RHS:           1
 	NUMBER OF FLOPS:         2.109e+03

     CHECK POINT  START OF SOLVER     

     CHECK POINT  END OF SOLVER       

       ELAPSED USER TIME (SEC)      =   0.0000    
       ELAPSED SYSTEM TIME (SEC)    =   0.0000    
       ELAPSED TOTAL CPU TIME (SEC) =   0.0000    
       ELAPSED WALLCLOCK TIME (SEC) =            0

               CONVERGENCE CHECKS FOR EQUILIBRIUM ITERATION     4


 AVERAGE FORCE                      0.343       TIME AVG. FORCE       0.270    
 LARGEST SCALED RESIDUAL FORCE      2.598E-03   AT NODE          2   DOF  1
  CORRESPONDING RESIDUAL FORCE      2.598E-03
 LARGEST INCREMENT OF DISP.         8.437E-05   AT NODE          1   DOF  2
 LARGEST CORRECTION TO DISP.       -1.602E-06   AT NODE          2   DOF  1
          FORCE     EQUILIBRIUM NOT ACHIEVED WITHIN TOLERANCE.
 
	SYMMETRIC DIRECT SPARSE SOLVER RUNNING ON
 	1 HOST:        1 MPI RANK  x 1 THREAD
 	NUMBER OF EQUATIONS:     18
 	NUMBER OF RHS:           1
 	NUMBER OF FLOPS:         2.109e+03

     CHECK POINT  START OF SOLVER     

     CHECK POINT  END OF SOLVER       

       ELAPSED USER TIME (SEC)      =   0.0000    
       ELAPSED SYSTEM TIME (SEC)    =   0.0000    
       ELAPSED TOTAL CPU TIME (SEC) =   0.0000    
       ELAPSED WALLCLOCK TIME (SEC) =            0

               CONVERGENCE CHECKS FOR EQUILIBRIUM ITERATION     5


 AVERAGE FORCE                      0.344       TIME AVG. FORCE       0.270    
 LARGEST SCALED RESIDUAL FORCE     -2.458E-03   AT NODE          2   DOF  1
  CORRESPONDING RESIDUAL FORCE     -2.458E-03
 LARGEST INCREMENT OF DISP.         8.437E-05   AT NODE          1   DOF  2
 LARGEST CORRECTION TO DISP.        1.523E-06   AT NODE          2   DOF  1
          FORCE     EQUILIBRIUM NOT ACHIEVED WITHIN TOLERANCE.
 
	SYMMETRIC DIRECT SPARSE SOLVER RUNNING ON
 	1 HOST:        1 MPI RANK  x 1 THREAD
 	NUMBER OF EQUATIONS:     18
 	NUMBER OF RHS:           1
 	NUMBER OF FLOPS:         2.109e+03

     CHECK POINT  START OF SOLVER     

     CHECK POINT  END OF SOLVER       

       ELAPSED USER TIME (SEC)      =   0.0000    
       ELAPSED SYSTEM TIME (SEC)    =   0.0000    
       ELAPSED TOTAL CPU TIME (SEC) =   0.0000    
       ELAPSED WALLCLOCK TIME (SEC) =            0

               CONVERGENCE CHECKS FOR EQUILIBRIUM ITERATION     6


 AVERAGE FORCE                      0.343       TIME AVG. FORCE       0.270    
 LARGEST SCALED RESIDUAL FORCE      2.324E-03   AT NODE          2   DOF  1
  CORRESPONDING RESIDUAL FORCE      2.324E-03
 LARGEST INCREMENT OF DISP.         8.437E-05   AT NODE          1   DOF  2
 LARGEST CORRECTION TO DISP.       -1.446E-06   AT NODE          2   DOF  1
          FORCE     EQUILIBRIUM NOT ACHIEVED WITHIN TOLERANCE.
 
	SYMMETRIC DIRECT SPARSE SOLVER RUNNING ON
 	1 HOST:        1 MPI RANK  x 1 THREAD
 	NUMBER OF EQUATIONS:     18
 	NUMBER OF RHS:           1
 	NUMBER OF FLOPS:         2.109e+03

     CHECK POINT  START OF SOLVER     

     CHECK POINT  END OF SOLVER       

       ELAPSED USER TIME (SEC)      =   0.0000    
       ELAPSED SYSTEM TIME (SEC)    =   0.0000    
       ELAPSED TOTAL CPU TIME (SEC) =   0.0000    
       ELAPSED WALLCLOCK TIME (SEC) =            0

               CONVERGENCE CHECKS FOR EQUILIBRIUM ITERATION     7


 AVERAGE FORCE                      0.344       TIME AVG. FORCE       0.270    
 LARGEST SCALED RESIDUAL FORCE     -2.199E-03   AT NODE          2   DOF  1
  CORRESPONDING RESIDUAL FORCE     -2.199E-03
 LARGEST INCREMENT OF DISP.         8.437E-05   AT NODE          1   DOF  2
 LARGEST CORRECTION TO DISP.        1.370E-06   AT NODE          2   DOF  1
          FORCE     EQUILIBRIUM NOT ACHIEVED WITHIN TOLERANCE.
 
	SYMMETRIC DIRECT SPARSE SOLVER RUNNING ON
 	1 HOST:        1 MPI RANK  x 1 THREAD
 	NUMBER OF EQUATIONS:     18
 	NUMBER OF RHS:           1
 	NUMBER OF FLOPS:         2.109e+03

     CHECK POINT  START OF SOLVER     

     CHECK POINT  END OF SOLVER       

       ELAPSED USER TIME (SEC)      =   0.0000    
       ELAPSED SYSTEM TIME (SEC)    =   0.0000    
       ELAPSED TOTAL CPU TIME (SEC) =   0.0000    
       ELAPSED WALLCLOCK TIME (SEC) =            0

               CONVERGENCE CHECKS FOR EQUILIBRIUM ITERATION     8


 AVERAGE FORCE                      0.343       TIME AVG. FORCE       0.270    
 LARGEST SCALED RESIDUAL FORCE      2.080E-03   AT NODE          2   DOF  1
  CORRESPONDING RESIDUAL FORCE      2.080E-03
 LARGEST INCREMENT OF DISP.         8.437E-05   AT NODE          1   DOF  2
 LARGEST CORRECTION TO DISP.       -1.297E-06   AT NODE          2   DOF  1
          FORCE     EQUILIBRIUM NOT ACHIEVED WITHIN TOLERANCE.
 
	SYMMETRIC DIRECT SPARSE SOLVER RUNNING ON
 	1 HOST:        1 MPI RANK  x 1 THREAD
 	NUMBER OF EQUATIONS:     18
 	NUMBER OF RHS:           1
 	NUMBER OF FLOPS:         2.109e+03

     CHECK POINT  START OF SOLVER     

     CHECK POINT  END OF SOLVER       

       ELAPSED USER TIME (SEC)      =   0.0000    
       ELAPSED SYSTEM TIME (SEC)    =   0.0000    
       ELAPSED TOTAL CPU TIME (SEC) =   0.0000    
       ELAPSED WALLCLOCK TIME (SEC) =            0

               CONVERGENCE CHECKS FOR EQUILIBRIUM ITERATION     9


 AVERAGE FORCE                      0.344       TIME AVG. FORCE       0.270    
 LARGEST SCALED RESIDUAL FORCE     -1.967E-03   AT NODE          2   DOF  1
  CORRESPONDING RESIDUAL FORCE     -1.967E-03
 LARGEST INCREMENT OF DISP.         8.437E-05   AT NODE          1   DOF  2
 LARGEST CORRECTION TO DISP.        1.227E-06   AT NODE          2   DOF  1
          FORCE     EQUILIBRIUM NOT ACHIEVED WITHIN TOLERANCE.
 
	SYMMETRIC DIRECT SPARSE SOLVER RUNNING ON
 	1 HOST:        1 MPI RANK  x 1 THREAD
 	NUMBER OF EQUATIONS:     18
 	NUMBER OF RHS:           1
 	NUMBER OF FLOPS:         2.109e+03

     CHECK POINT  START OF SOLVER     

     CHECK POINT  END OF SOLVER       

       ELAPSED USER TIME (SEC)      =   0.0000    
       ELAPSED SYSTEM TIME (SEC)    =   0.0000    
       ELAPSED TOTAL CPU TIME (SEC) =   0.0000    
       ELAPSED WALLCLOCK TIME (SEC) =            0

               CONVERGENCE CHECKS FOR EQUILIBRIUM ITERATION    10


 AVERAGE FORCE                      0.343       TIME AVG. FORCE       0.270    
 LARGEST SCALED RESIDUAL FORCE      1.861E-03   AT NODE          2   DOF  1
  CORRESPONDING RESIDUAL FORCE      1.861E-03
 LARGEST INCREMENT OF DISP.         8.437E-05   AT NODE          1   DOF  2
 LARGEST CORRECTION TO DISP.       -1.161E-06   AT NODE          2   DOF  1
          DISP.    CORRECTION TOO LARGE COMPARED TO DISP.    INCREMENT
 
	SYMMETRIC DIRECT SPARSE SOLVER RUNNING ON
 	1 HOST:        1 MPI RANK  x 1 THREAD
 	NUMBER OF EQUATIONS:     18
 	NUMBER OF RHS:           1
 	NUMBER OF FLOPS:         2.109e+03

     CHECK POINT  START OF SOLVER     

     CHECK POINT  END OF SOLVER       

       ELAPSED USER TIME (SEC)      =   0.0000    
       ELAPSED SYSTEM TIME (SEC)    =   0.0000    
       ELAPSED TOTAL CPU TIME (SEC) =   0.0000    
       ELAPSED WALLCLOCK TIME (SEC) =            0

               CONVERGENCE CHECKS FOR EQUILIBRIUM ITERATION    11


 AVERAGE FORCE                      0.359       TIME AVG. FORCE       0.271    
 LARGEST SCALED RESIDUAL FORCE     -1.760E-03   AT NODE          2   DOF  1
  CORRESPONDING RESIDUAL FORCE     -1.760E-03
 LARGEST INCREMENT OF DISP.         8.437E-05   AT NODE          1   DOF  2
 LARGEST CORRECTION TO DISP.        1.099E-06   AT NODE          2   DOF  1
          DISP.    CORRECTION TOO LARGE COMPARED TO DISP.    INCREMENT
 
	SYMMETRIC DIRECT SPARSE SOLVER RUNNING ON
 	1 HOST:        1 MPI RANK  x 1 THREAD
 	NUMBER OF EQUATIONS:     18
 	NUMBER OF RHS:           1
 	NUMBER OF FLOPS:         2.109e+03

     CHECK POINT  START OF SOLVER     

     CHECK POINT  END OF SOLVER       

       ELAPSED USER TIME (SEC)      =   0.0000    
       ELAPSED SYSTEM TIME (SEC)    =   0.0000    
       ELAPSED TOTAL CPU TIME (SEC) =   0.0000    
       ELAPSED WALLCLOCK TIME (SEC) =            0

               CONVERGENCE CHECKS FOR EQUILIBRIUM ITERATION    12


 AVERAGE FORCE                      0.343       TIME AVG. FORCE       0.270    
 LARGEST SCALED RESIDUAL FORCE      1.665E-03   AT NODE          2   DOF  1
  CORRESPONDING RESIDUAL FORCE      1.665E-03
 LARGEST INCREMENT OF DISP.         8.437E-05   AT NODE          1   DOF  2
[...]
 

 ***WARNING: THE SYSTEM MATRIX HAS 1 NEGATIVE EIGENVALUES.
             EXPLANATIONS ARE SUGGESTED AFTER THE FIRST OCCURRENCE OF THIS MESSAGE.

               CONVERGENCE CHECKS FOR EQUILIBRIUM ITERATION     1


 AVERAGE FORCE                      0.328       TIME AVG. FORCE       0.418    
 LARGEST SCALED RESIDUAL FORCE      1.302E-04   AT NODE          2   DOF  1
  CORRESPONDING RESIDUAL FORCE      1.302E-04
 LARGEST INCREMENT OF DISP.         1.000E-04   AT NODE          1   DOF  2
 LARGEST CORRECTION TO DISP.       -1.595E-07   AT NODE          2   DOF  1
          THE FORCE     EQUILIBRIUM EQUATIONS HAVE CONVERGED

 ITERATION SUMMARY FOR THE INCREMENT:   1 TOTAL ITERATIONS, OF WHICH
   0 ARE SEVERE DISCONTINUITY ITERATIONS AND  1 ARE EQUILIBRIUM ITERATIONS.

 TIME INCREMENT COMPLETED  1.000E-03,  FRACTION OF STEP COMPLETED  0.962    
 STEP TIME COMPLETED       0.962    ,  TOTAL TIME COMPLETED        0.962    


  INCREMENT   989 STARTS. ATTEMPT NUMBER  1, TIME INCREMENT  1.000E-03
 
	SYMMETRIC DIRECT SPARSE SOLVER RUNNING ON
 	1 HOST:        1 MPI RANK  x 1 THREAD
 	NUMBER OF EQUATIONS:     18
 	NUMBER OF RHS:           1
 	NUMBER OF FLOPS:         2.109e+03

     CHECK POINT  START OF SOLVER     

     CHECK POINT  END OF SOLVER       

       ELAPSED USER TIME (SEC)      =   0.0000    
       ELAPSED SYSTEM TIME (SEC)    =   0.0000    
       ELAPSED TOTAL CPU TIME (SEC) =   0.0000    
       ELAPSED WALLCLOCK TIME (SEC) =            0
 

 ***WARNING: THE SYSTEM MATRIX HAS 1 NEGATIVE EIGENVALUES.
             EXPLANATIONS ARE SUGGESTED AFTER THE FIRST OCCURRENCE OF THIS MESSAGE.

               CONVERGENCE CHECKS FOR EQUILIBRIUM ITERATION     1


 AVERAGE FORCE                      0.359       TIME AVG. FORCE       0.418    
 LARGEST SCALED RESIDUAL FORCE     -2.339E-04   AT NODE          2   DOF  1
  CORRESPONDING RESIDUAL FORCE     -2.339E-04
 LARGEST INCREMENT OF DISP.         1.000E-04   AT NODE          1   DOF  2
 LARGEST CORRECTION TO DISP.        2.041E-07   AT NODE          2   DOF  1
          THE FORCE     EQUILIBRIUM EQUATIONS HAVE CONVERGED

 ITERATION SUMMARY FOR THE INCREMENT:   1 TOTAL ITERATIONS, OF WHICH
   0 ARE SEVERE DISCONTINUITY ITERATIONS AND  1 ARE EQUILIBRIUM ITERATIONS.

 TIME INCREMENT COMPLETED  1.000E-03,  FRACTION OF STEP COMPLETED  0.963    
 STEP TIME COMPLETED       0.963    ,  TOTAL TIME COMPLETED        0.963    


  INCREMENT   990 STARTS. ATTEMPT NUMBER  1, TIME INCREMENT  1.000E-03
 
	SYMMETRIC DIRECT SPARSE SOLVER RUNNING ON
 	1 HOST:        1 MPI RANK  x 1 THREAD
 	NUMBER OF EQUATIONS:     18
 	NUMBER OF RHS:           1
 	NUMBER OF FLOPS:         2.109e+03

     CHECK POINT  START OF SOLVER     

     CHECK POINT  END OF SOLVER       

       ELAPSED USER TIME (SEC)      =   0.0000    
       ELAPSED SYSTEM TIME (SEC)    =   0.0000    
       ELAPSED TOTAL CPU TIME (SEC) =   0.0000    
       ELAPSED WALLCLOCK TIME (SEC) =            0
 

 ***WARNING: THE SYSTEM MATRIX HAS 1 NEGATIVE EIGENVALUES.
             EXPLANATIONS ARE SUGGESTED AFTER THE FIRST OCCURRENCE OF THIS MESSAGE.

               CONVERGENCE CHECKS FOR EQUILIBRIUM ITERATION     1


 AVERAGE FORCE                      0.314       TIME AVG. FORCE       0.418    
 LARGEST SCALED RESIDUAL FORCE      1.649E-04   AT NODE          2   DOF  1
  CORRESPONDING RESIDUAL FORCE      1.649E-04
 LARGEST INCREMENT OF DISP.         1.000E-04   AT NODE          1   DOF  2
 LARGEST CORRECTION TO DISP.       -1.903E-07   AT NODE          2   DOF  1
          THE FORCE     EQUILIBRIUM EQUATIONS HAVE CONVERGED

 ITERATION SUMMARY FOR THE INCREMENT:   1 TOTAL ITERATIONS, OF WHICH
   0 ARE SEVERE DISCONTINUITY ITERATIONS AND  1 ARE EQUILIBRIUM ITERATIONS.

 TIME INCREMENT COMPLETED  1.000E-03,  FRACTION OF STEP COMPLETED  0.964    
 STEP TIME COMPLETED       0.964    ,  TOTAL TIME COMPLETED        0.964    


  INCREMENT   991 STARTS. ATTEMPT NUMBER  1, TIME INCREMENT  1.000E-03
 
	SYMMETRIC DIRECT SPARSE SOLVER RUNNING ON
 	1 HOST:        1 MPI RANK  x 1 THREAD
 	NUMBER OF EQUATIONS:     18
 	NUMBER OF RHS:           1
 	NUMBER OF FLOPS:         2.109e+03

     CHECK POINT  START OF SOLVER     

     CHECK POINT  END OF SOLVER       

       ELAPSED USER TIME (SEC)      =   0.0000    
       ELAPSED SYSTEM TIME (SEC)    =   0.0000    
       ELAPSED TOTAL CPU TIME (SEC) =   0.0000    
       ELAPSED WALLCLOCK TIME (SEC) =            0
 

 ***WARNING: THE SYSTEM MATRIX HAS 1 NEGATIVE EIGENVALUES.
             EXPLANATIONS ARE SUGGESTED AFTER THE FIRST OCCURRENCE OF THIS MESSAGE.

               CONVERGENCE CHECKS FOR EQUILIBRIUM ITERATION     1


 AVERAGE FORCE                      0.342       TIME AVG. FORCE       0.418    
 LARGEST SCALED RESIDUAL FORCE     -2.678E-04   AT NODE          2   DOF  1
  CORRESPONDING RESIDUAL FORCE     -2.678E-04
 LARGEST INCREMENT OF DISP.         1.000E-04   AT NODE          1   DOF  2
 LARGEST CORRECTION TO DISP.        2.353E-07   AT NODE          2   DOF  1
          THE FORCE     EQUILIBRIUM EQUATIONS HAVE CONVERGED

 ITERATION SUMMARY FOR THE INCREMENT:   1 TOTAL ITERATIONS, OF WHICH
   0 ARE SEVERE DISCONTINUITY ITERATIONS AND  1 ARE EQUILIBRIUM ITERATIONS.

 TIME INCREMENT COMPLETED  1.000E-03,  FRACTION OF STEP COMPLETED  0.965    
 STEP TIME COMPLETED       0.965    ,  TOTAL TIME COMPLETED        0.965    


  INCREMENT   992 STARTS. ATTEMPT NUMBER  1, TIME INCREMENT  1.000E-03
 
	SYMMETRIC DIRECT SPARSE SOLVER RUNNING ON
 	1 HOST:        1 MPI RANK  x 1 THREAD
 	NUMBER OF EQUATIONS:     18
 	NUMBER OF RHS:           1
 	NUMBER OF FLOPS:         2.109e+03

     CHECK POINT  START OF SOLVER     

     CHECK POINT  END OF SOLVER       

       ELAPSED USER TIME (SEC)      =   0.0000    
       ELAPSED SYSTEM TIME (SEC)    =   0.0000    
       ELAPSED TOTAL CPU TIME (SEC) =   0.0000    
       ELAPSED WALLCLOCK TIME (SEC) =            0
 

 ***WARNING: THE SYSTEM MATRIX HAS 1 NEGATIVE EIGENVALUES.
             EXPLANATIONS ARE SUGGESTED AFTER THE FIRST OCCURRENCE OF THIS MESSAGE.

               CONVERGENCE CHECKS FOR EQUILIBRIUM ITERATION     1


 AVERAGE FORCE                      0.314       TIME AVG. FORCE       0.417    
 LARGEST SCALED RESIDUAL FORCE      2.027E-04   AT NODE          2   DOF  1
  CORRESPONDING RESIDUAL FORCE      2.027E-04
 LARGEST INCREMENT OF DISP.         1.000E-04   AT NODE          1   DOF  2
 LARGEST CORRECTION TO DISP.       -2.259E-07   AT NODE          2   DOF  1
          THE FORCE     EQUILIBRIUM EQUATIONS HAVE CONVERGED

 ITERATION SUMMARY FOR THE INCREMENT:   1 TOTAL ITERATIONS, OF WHICH
   0 ARE SEVERE DISCONTINUITY ITERATIONS AND  1 ARE EQUILIBRIUM ITERATIONS.

 TIME INCREMENT COMPLETED  1.000E-03,  FRACTION OF STEP COMPLETED  0.966    
 STEP TIME COMPLETED       0.966    ,  TOTAL TIME COMPLETED        0.966    


  INCREMENT   993 STARTS. ATTEMPT NUMBER  1, TIME INCREMENT  1.000E-03
 
	SYMMETRIC DIRECT SPARSE SOLVER RUNNING ON
 	1 HOST:        1 MPI RANK  x 1 THREAD
 	NUMBER OF EQUATIONS:     18
 	NUMBER OF RHS:           1
 	NUMBER OF FLOPS:         2.109e+03

     CHECK POINT  START OF SOLVER     

     CHECK POINT  END OF SOLVER       

       ELAPSED USER TIME (SEC)      =   0.0000    
       ELAPSED SYSTEM TIME (SEC)    =   0.0000    
       ELAPSED TOTAL CPU TIME (SEC) =   0.0000    
       ELAPSED WALLCLOCK TIME (SEC) =            0
 

 ***WARNING: THE SYSTEM MATRIX HAS 1 NEGATIVE EIGENVALUES.
             EXPLANATIONS ARE SUGGESTED AFTER THE FIRST OCCURRENCE OF THIS MESSAGE.

               CONVERGENCE CHECKS FOR EQUILIBRIUM ITERATION     1


 AVERAGE FORCE                      0.358       TIME AVG. FORCE       0.417    
 LARGEST SCALED RESIDUAL FORCE     -3.081E-04   AT NODE          2   DOF  1
  CORRESPONDING RESIDUAL FORCE     -3.081E-04
 LARGEST INCREMENT OF DISP.         1.000E-04   AT NODE          1   DOF  2
 LARGEST CORRECTION TO DISP.        2.738E-07   AT NODE          2   DOF  1
          THE FORCE     EQUILIBRIUM EQUATIONS HAVE CONVERGED

 ITERATION SUMMARY FOR THE INCREMENT:   1 TOTAL ITERATIONS, OF WHICH
   0 ARE SEVERE DISCONTINUITY ITERATIONS AND  1 ARE EQUILIBRIUM ITERATIONS.

 TIME INCREMENT COMPLETED  1.000E-03,  FRACTION OF STEP COMPLETED  0.967    
 STEP TIME COMPLETED       0.967    ,  TOTAL TIME COMPLETED        0.967    


  INCREMENT   994 STARTS. ATTEMPT NUMBER  1, TIME INCREMENT  1.000E-03
 
	SYMMETRIC DIRECT SPARSE SOLVER RUNNING ON
 	1 HOST:        1 MPI RANK  x 1 THREAD
 	NUMBER OF EQUATIONS:     18
 	NUMBER OF RHS:           1
 	NUMBER OF FLOPS:         2.109e+03

     CHECK POINT  START OF SOLVER     

     CHECK POINT  END OF SOLVER       

       ELAPSED USER TIME (SEC)      =   0.0000    
       ELAPSED SYSTEM TIME (SEC)    =   0.0000    
       ELAPSED TOTAL CPU TIME (SEC) =   0.0000    
       ELAPSED WALLCLOCK TIME (SEC) =            0
 

 ***WARNING: THE SYSTEM MATRIX HAS 1 NEGATIVE EIGENVALUES.
             EXPLANATIONS ARE SUGGESTED AFTER THE FIRST OCCURRENCE OF THIS MESSAGE.

               CONVERGENCE CHECKS FOR EQUILIBRIUM ITERATION     1


 AVERAGE FORCE                      0.313       TIME AVG. FORCE       0.417    
 LARGEST SCALED RESIDUAL FORCE      2.465E-04   AT NODE          2   DOF  1
  CORRESPONDING RESIDUAL FORCE      2.465E-04
 LARGEST INCREMENT OF DISP.         1.000E-04   AT NODE          1   DOF  2
 LARGEST CORRECTION TO DISP.       -2.680E-07   AT NODE          2   DOF  1
          THE FORCE     EQUILIBRIUM EQUATIONS HAVE CONVERGED

 ITERATION SUMMARY FOR THE INCREMENT:   1 TOTAL ITERATIONS, OF WHICH
   0 ARE SEVERE DISCONTINUITY ITERATIONS AND  1 ARE EQUILIBRIUM ITERATIONS.

 TIME INCREMENT COMPLETED  1.000E-03,  FRACTION OF STEP COMPLETED  0.968    
 STEP TIME COMPLETED       0.968    ,  TOTAL TIME COMPLETED        0.968    


  INCREMENT   995 STARTS. ATTEMPT NUMBER  1, TIME INCREMENT  1.000E-03
 
	SYMMETRIC DIRECT SPARSE SOLVER RUNNING ON
 	1 HOST:        1 MPI RANK  x 1 THREAD
 	NUMBER OF EQUATIONS:     18
 	NUMBER OF RHS:           1
 	NUMBER OF FLOPS:         2.109e+03

     CHECK POINT  START OF SOLVER     

     CHECK POINT  END OF SOLVER       

       ELAPSED USER TIME (SEC)      =   0.0000    
       ELAPSED SYSTEM TIME (SEC)    =   0.0000    
       ELAPSED TOTAL CPU TIME (SEC) =   0.0000    
       ELAPSED WALLCLOCK TIME (SEC) =            0
 

 ***WARNING: THE SYSTEM MATRIX HAS 1 NEGATIVE EIGENVALUES.
             EXPLANATIONS ARE SUGGESTED AFTER THE FIRST OCCURRENCE OF THIS MESSAGE.

               CONVERGENCE CHECKS FOR EQUILIBRIUM ITERATION     1


 AVERAGE FORCE                      0.342       TIME AVG. FORCE       0.417    
 LARGEST SCALED RESIDUAL FORCE     -3.552E-04   AT NODE          2   DOF  1
  CORRESPONDING RESIDUAL FORCE     -3.552E-04
 LARGEST INCREMENT OF DISP.         1.000E-04   AT NODE          1   DOF  2
 LARGEST CORRECTION TO DISP.        3.195E-07   AT NODE          2   DOF  1
          THE FORCE     EQUILIBRIUM EQUATIONS HAVE CONVERGED

 ITERATION SUMMARY FOR THE INCREMENT:   1 TOTAL ITERATIONS, OF WHICH
   0 ARE SEVERE DISCONTINUITY ITERATIONS AND  1 ARE EQUILIBRIUM ITERATIONS.

 TIME INCREMENT COMPLETED  1.000E-03,  FRACTION OF STEP COMPLETED  0.969    
 STEP TIME COMPLETED       0.969    ,  TOTAL TIME COMPLETED        0.969    


  INCREMENT   996 STARTS. ATTEMPT NUMBER  1, TIME INCREMENT  1.000E-03
 
	SYMMETRIC DIRECT SPARSE SOLVER RUNNING ON
 	1 HOST:        1 MPI RANK  x 1 THREAD
 	NUMBER OF EQUATIONS:     18
 	NUMBER OF RHS:           1
 	NUMBER OF FLOPS:         2.109e+03

     CHECK POINT  START OF SOLVER     

     CHECK POINT  END OF SOLVER       

       ELAPSED USER TIME (SEC)      =   0.0000    
       ELAPSED SYSTEM TIME (SEC)    =   0.0000    
       ELAPSED TOTAL CPU TIME (SEC) =   0.0000    
       ELAPSED WALLCLOCK TIME (SEC) =            0
 

 ***WARNING: THE SYSTEM MATRIX HAS 1 NEGATIVE EIGENVALUES.
             EXPLANATIONS ARE SUGGESTED AFTER THE FIRST OCCURRENCE OF THIS MESSAGE.

               CONVERGENCE CHECKS FOR EQUILIBRIUM ITERATION     1


 AVERAGE FORCE                      0.313       TIME AVG. FORCE       0.417    
 LARGEST SCALED RESIDUAL FORCE      2.976E-04   AT NODE          2   DOF  1
  CORRESPONDING RESIDUAL FORCE      2.976E-04
 LARGEST INCREMENT OF DISP.         1.000E-04   AT NODE          1   DOF  2
 LARGEST CORRECTION TO DISP.       -3.177E-07   AT NODE          2   DOF  1
          THE FORCE     EQUILIBRIUM EQUATIONS HAVE CONVERGED

 ITERATION SUMMARY FOR THE INCREMENT:   1 TOTAL ITERATIONS, OF WHICH
   0 ARE SEVERE DISCONTINUITY ITERATIONS AND  1 ARE EQUILIBRIUM ITERATIONS.

 TIME INCREMENT COMPLETED  1.000E-03,  FRACTION OF STEP COMPLETED  0.970    
 STEP TIME COMPLETED       0.970    ,  TOTAL TIME COMPLETED        0.970    


  INCREMENT   997 STARTS. ATTEMPT NUMBER  1, TIME INCREMENT  1.000E-03
 
	SYMMETRIC DIRECT SPARSE SOLVER RUNNING ON
 	1 HOST:        1 MPI RANK  x 1 THREAD
 	NUMBER OF EQUATIONS:     18
 	NUMBER OF RHS:           1
 	NUMBER OF FLOPS:         2.109e+03

     CHECK POINT  START OF SOLVER     

     CHECK POINT  END OF SOLVER       

       ELAPSED USER TIME (SEC)      =   0.0000    
       ELAPSED SYSTEM TIME (SEC)    =   0.0000    
       ELAPSED TOTAL CPU TIME (SEC) =   0.0000    
       ELAPSED WALLCLOCK TIME (SEC) =            0
 

 ***WARNING: THE SYSTEM MATRIX HAS 1 NEGATIVE EIGENVALUES.
             EXPLANATIONS ARE SUGGESTED AFTER THE FIRST OCCURRENCE OF THIS MESSAGE.

               CONVERGENCE CHECKS FOR EQUILIBRIUM ITERATION     1


 AVERAGE FORCE                      0.327       TIME AVG. FORCE       0.417    
 LARGEST SCALED RESIDUAL FORCE     -4.102E-04   AT NODE          2   DOF  1
  CORRESPONDING RESIDUAL FORCE     -4.102E-04
 LARGEST INCREMENT OF DISP.         1.000E-04   AT NODE          1   DOF  2
 LARGEST CORRECTION TO DISP.        3.732E-07   AT NODE          2   DOF  1
          THE FORCE     EQUILIBRIUM EQUATIONS HAVE CONVERGED

 ITERATION SUMMARY FOR THE INCREMENT:   1 TOTAL ITERATIONS, OF WHICH
   0 ARE SEVERE DISCONTINUITY ITERATIONS AND  1 ARE EQUILIBRIUM ITERATIONS.

 TIME INCREMENT COMPLETED  1.000E-03,  FRACTION OF STEP COMPLETED  0.971    
 STEP TIME COMPLETED       0.971    ,  TOTAL TIME COMPLETED        0.971    


  INCREMENT   998 STARTS. ATTEMPT NUMBER  1, TIME INCREMENT  1.000E-03
 
	SYMMETRIC DIRECT SPARSE SOLVER RUNNING ON
 	1 HOST:        1 MPI RANK  x 1 THREAD
 	NUMBER OF EQUATIONS:     18
 	NUMBER OF RHS:           1
 	NUMBER OF FLOPS:         2.109e+03

     CHECK POINT  START OF SOLVER     

     CHECK POINT  END OF SOLVER       

       ELAPSED USER TIME (SEC)      =   0.0000    
       ELAPSED SYSTEM TIME (SEC)    =   0.0000    
       ELAPSED TOTAL CPU TIME (SEC) =   0.0000    
       ELAPSED WALLCLOCK TIME (SEC) =            0
 

 ***WARNING: THE SYSTEM MATRIX HAS 1 NEGATIVE EIGENVALUES.
             EXPLANATIONS ARE SUGGESTED AFTER THE FIRST OCCURRENCE OF THIS MESSAGE.

               CONVERGENCE CHECKS FOR EQUILIBRIUM ITERATION     1


 AVERAGE FORCE                      0.313       TIME AVG. FORCE       0.417    
 LARGEST SCALED RESIDUAL FORCE      3.570E-04   AT NODE          2   DOF  1
  CORRESPONDING RESIDUAL FORCE      3.570E-04
 LARGEST INCREMENT OF DISP.         1.000E-04   AT NODE          1   DOF  2
 LARGEST CORRECTION TO DISP.       -3.758E-07   AT NODE          2   DOF  1
          THE FORCE     EQUILIBRIUM EQUATIONS HAVE CONVERGED

 ITERATION SUMMARY FOR THE INCREMENT:   1 TOTAL ITERATIONS, OF WHICH
   0 ARE SEVERE DISCONTINUITY ITERATIONS AND  1 ARE EQUILIBRIUM ITERATIONS.

 TIME INCREMENT COMPLETED  1.000E-03,  FRACTION OF STEP COMPLETED  0.972    
 STEP TIME COMPLETED       0.972    ,  TOTAL TIME COMPLETED        0.972    


  INCREMENT   999 STARTS. ATTEMPT NUMBER  1, TIME INCREMENT  1.000E-03
 
	SYMMETRIC DIRECT SPARSE SOLVER RUNNING ON
 	1 HOST:        1 MPI RANK  x 1 THREAD
 	NUMBER OF EQUATIONS:     18
 	NUMBER OF RHS:           1
 	NUMBER OF FLOPS:         2.109e+03

     CHECK POINT  START OF SOLVER     

     CHECK POINT  END OF SOLVER       

       ELAPSED USER TIME (SEC)      =   0.0000    
       ELAPSED SYSTEM TIME (SEC)    =   0.0000    
       ELAPSED TOTAL CPU TIME (SEC) =   0.0000    
       ELAPSED WALLCLOCK TIME (SEC) =            0
 

 ***WARNING: THE SYSTEM MATRIX HAS 1 NEGATIVE EIGENVALUES.
             EXPLANATIONS ARE SUGGESTED AFTER THE FIRST OCCURRENCE OF THIS MESSAGE.

               CONVERGENCE CHECKS FOR EQUILIBRIUM ITERATION     1


 AVERAGE FORCE                      0.313       TIME AVG. FORCE       0.417    
 LARGEST SCALED RESIDUAL FORCE     -4.742E-04   AT NODE          2   DOF  1
  CORRESPONDING RESIDUAL FORCE     -4.742E-04
 LARGEST INCREMENT OF DISP.         1.000E-04   AT NODE          1   DOF  2
 LARGEST CORRECTION TO DISP.        4.359E-07   AT NODE          2   DOF  1
          THE FORCE     EQUILIBRIUM EQUATIONS HAVE CONVERGED

 ITERATION SUMMARY FOR THE INCREMENT:   1 TOTAL ITERATIONS, OF WHICH
   0 ARE SEVERE DISCONTINUITY ITERATIONS AND  1 ARE EQUILIBRIUM ITERATIONS.

 TIME INCREMENT COMPLETED  1.000E-03,  FRACTION OF STEP COMPLETED  0.973    
 STEP TIME COMPLETED       0.973    ,  TOTAL TIME COMPLETED        0.973    


  INCREMENT  1000 STARTS. ATTEMPT NUMBER  1, TIME INCREMENT  1.000E-03
 
	SYMMETRIC DIRECT SPARSE SOLVER RUNNING ON
 	1 HOST:        1 MPI RANK  x 1 THREAD
 	NUMBER OF EQUATIONS:     18
 	NUMBER OF RHS:           1
 	NUMBER OF FLOPS:         2.109e+03

     CHECK POINT  START OF SOLVER     

     CHECK POINT  END OF SOLVER       

       ELAPSED USER TIME (SEC)      =   0.0000    
       ELAPSED SYSTEM TIME (SEC)    =   0.0000    
       ELAPSED TOTAL CPU TIME (SEC) =   0.0000    
       ELAPSED WALLCLOCK TIME (SEC) =            0
 

 ***WARNING: THE SYSTEM MATRIX HAS 1 NEGATIVE EIGENVALUES.
             EXPLANATIONS ARE SUGGESTED AFTER THE FIRST OCCURRENCE OF THIS MESSAGE.

               CONVERGENCE CHECKS FOR EQUILIBRIUM ITERATION     1


 AVERAGE FORCE                      0.312       TIME AVG. FORCE       0.417    
 LARGEST SCALED RESIDUAL FORCE      4.262E-04   AT NODE          2   DOF  1
  CORRESPONDING RESIDUAL FORCE      4.262E-04
 LARGEST INCREMENT OF DISP.         1.000E-04   AT NODE          1   DOF  2
 LARGEST CORRECTION TO DISP.       -4.436E-07   AT NODE          2   DOF  1
          THE FORCE     EQUILIBRIUM EQUATIONS HAVE CONVERGED

 ITERATION SUMMARY FOR THE INCREMENT:   1 TOTAL ITERATIONS, OF WHICH
   0 ARE SEVERE DISCONTINUITY ITERATIONS AND  1 ARE EQUILIBRIUM ITERATIONS.

 TIME INCREMENT COMPLETED  1.000E-03,  FRACTION OF STEP COMPLETED  0.974    
 STEP TIME COMPLETED       0.974    ,  TOTAL TIME COMPLETED        0.974    
 

 ***ERROR: TOO MANY INCREMENTS NEEDED TO COMPLETE THE STEP

 ***ERROR: THE ANALYSIS HAS BEEN TERMINATED DUE TO PREVIOUS ERRORS. ALL OUTPUT 
           REQUESTS HAVE BEEN WRITTEN FOR THE LAST CONVERGED INCREMENT.



     ANALYSIS SUMMARY:
     TOTAL OF       1000  INCREMENTS
                       7  CUTBACKS IN AUTOMATIC INCREMENTATION
                    1440  ITERATIONS INCLUDING CONTACT ITERATIONS IF PRESENT
                    1440  PASSES THROUGH THE EQUATION SOLVER OF WHICH 
                    1440  INVOLVE MATRIX DECOMPOSITION, INCLUDING
                       0  DECOMPOSITION(S) OF THE MASS MATRIX
                       1  REORDERING OF EQUATIONS TO MINIMIZE WAVEFRONT
                       0  ADDITIONAL RESIDUAL EVALUATIONS FOR LINE SEARCHES
                       0  ADDITIONAL OPERATOR EVALUATIONS FOR LINE SEARCHES
                       4  WARNING MESSAGES DURING USER INPUT PROCESSING
                     903  WARNING MESSAGES DURING ANALYSIS
                       0  ANALYSIS WARNINGS ARE NUMERICAL PROBLEM MESSAGES
                     903  ANALYSIS WARNINGS ARE NEGATIVE EIGENVALUE MESSAGES
                       2  ERROR MESSAGES



     JOB TIME SUMMARY
       USER TIME (SEC)      =      30.    
       SYSTEM TIME (SEC)    =      12.    
       TOTAL CPU TIME (SEC) =      42.    
       WALLCLOCK TIME (SEC) =           54
       MEMORY PEAK (GB)     =            0
