 Abaqus/Standard 2023                  DATE 30-May-2024 TIME 08:59:50
 SUMMARY OF JOB INFORMATION:
 STEP  INC ATT SEVERE EQUIL TOTAL  TOTAL      STEP       INC OF       DOF    IF
               DISCON ITERS ITERS  TIME/    TIME/LPF    TIME/LPF    MONITOR RIKS
               ITERS               FREQ
   1     1   1     0     2     2  0.000100   0.000100   0.0001000 
   1     2   1     0     1     1  0.000200   0.000200   0.0001000 
   1     3   1     0     1     1  0.000300   0.000300   0.0001000 
   1     4   1     0     1     1  0.000400   0.000400   0.0001000 
   1     5   1     0     1     1  0.000500   0.000500   0.0001000 
   1     6   1     0     1     1  0.000600   0.000600   0.0001000 
   1     7   1     0     1     1  0.000700   0.000700   0.0001000 
   1     8   1     0     1     1  0.000800   0.000800   0.0001000 
   1     9   1     0     1     1  0.000900   0.000900   0.0001000 
   1    10   1     0     1     1  0.00100    0.00100    0.0001000 
   1    11   1     0     1     1  0.00110    0.00110    0.0001000 
   1    12   1     0     1     1  0.00120    0.00120    0.0001000 
   1    13   1     0     1     1  0.00130    0.00130    0.0001000 
   1    14   1     0     1     1  0.00140    0.00140    0.0001000 
   1    15   1     0     1     1  0.00150    0.00150    0.0001000 
   1    16   1     0     1     1  0.00160    0.00160    0.0001000 
   1    17   1     0     1     1  0.00170    0.00170    0.0001000 
   1    18   1     0     1     1  0.00180    0.00180    0.0001000 
   1    19   1     0     1     1  0.00190    0.00190    0.0001000 
   1    20   1     0     1     1  0.00200    0.00200    0.0001000 
   1    21   1     0     1     1  0.00210    0.00210    0.0001000 
   1    22   1     0     1     1  0.00220    0.00220    0.0001000 
   1    23   1     0     1     1  0.00230    0.00230    0.0001000 
   1    24   1     0     1     1  0.00240    0.00240    0.0001000 
   1    25   1     0     1     1  0.00250    0.00250    0.0001000 
   1    26   1     0     1     1  0.00260    0.00260    0.0001000 
   1    27   1     0     1     1  0.00270    0.00270    0.0001000 
   1    28   1     0     1     1  0.00280    0.00280    0.0001000 
   1    29   1     0     1     1  0.00290    0.00290    0.0001000 
   1    30   1     0     1     1  0.00300    0.00300    0.0001000 
   1    31   1     0     1     1  0.00310    0.00310    0.0001000 
   1    32   1     0     1     1  0.00320    0.00320    0.0001000 
   1    33   1     0     1     1  0.00330    0.00330    0.0001000 
   1    34   1     0     1     1  0.00340    0.00340    0.0001000 
   1    35   1     0     1     1  0.00350    0.00350    0.0001000 
   1    36   1     0     1     1  0.00360    0.00360    0.0001000 
   1    37   1     0     1     1  0.00370    0.00370    0.0001000 
   1    38   1     0     1     1  0.00380    0.00380    0.0001000 
   1    39   1     0     1     1  0.00390    0.00390    0.0001000 
   1    40   1     0     1     1  0.00400    0.00400    0.0001000 
   1    41   1     0     1     1  0.00410    0.00410    0.0001000 
   1    42   1     0     1     1  0.00420    0.00420    0.0001000 
   1    43   1     0     1     1  0.00430    0.00430    0.0001000 
   1    44   1     0     1     1  0.00440    0.00440    0.0001000 
   1    45   1     0     1     1  0.00450    0.00450    0.0001000 
   1    46   1     0     1     1  0.00460    0.00460    0.0001000 
   1    47   1     0     1     1  0.00470    0.00470    0.0001000 
   1    48   1     0     1     1  0.00480    0.00480    0.0001000 
   1    49   1     0     1     1  0.00490    0.00490    0.0001000 
   1    50   1     0     1     1  0.00500    0.00500    0.0001000 
   1    51   1     0     1     1  0.00510    0.00510    0.0001000 
   1    52   1     0     1     1  0.00520    0.00520    0.0001000 
   1    53   1     0     1     1  0.00530    0.00530    0.0001000 
   1    54   1     0     1     1  0.00540    0.00540    0.0001000 
   1    55   1     0     1     1  0.00550    0.00550    0.0001000 
   1    56   1     0     1     1  0.00560    0.00560    0.0001000 
   1    57   1     0     1     1  0.00570    0.00570    0.0001000 
   1    58   1     0     1     1  0.00580    0.00580    0.0001000 
   1    59   1     0     1     1  0.00590    0.00590    0.0001000 
   1    60   1     0     1     1  0.00600    0.00600    0.0001000 
   1    61   1     0     1     1  0.00610    0.00610    0.0001000 
   1    62   1     0     1     1  0.00620    0.00620    0.0001000 
   1    63   1     0     1     1  0.00630    0.00630    0.0001000 
   1    64   1     0     1     1  0.00640    0.00640    0.0001000 
   1    65   1     0     1     1  0.00650    0.00650    0.0001000 
   1    66   1     0     1     1  0.00660    0.00660    0.0001000 
   1    67   1     0     1     1  0.00670    0.00670    0.0001000 
   1    68   1     0     1     1  0.00680    0.00680    0.0001000 
   1    69   1     0     1     1  0.00690    0.00690    0.0001000 
   1    70   1     0     1     1  0.00700    0.00700    0.0001000 
   1    71   1     0     1     1  0.00710    0.00710    0.0001000 
   1    72   1     0     1     1  0.00720    0.00720    0.0001000 
   1    73   1     0     1     1  0.00730    0.00730    0.0001000 
   1    74   1     0     1     1  0.00740    0.00740    0.0001000 
   1    75   1     0     1     1  0.00750    0.00750    0.0001000 
   1    76   1     0     1     1  0.00760    0.00760    0.0001000 
   1    77   1     0     1     1  0.00770    0.00770    0.0001000 
   1    78   1     0     1     1  0.00780    0.00780    0.0001000 
   1    79   1     0     1     1  0.00790    0.00790    0.0001000 
   1    80   1     0     1     1  0.00800    0.00800    0.0001000 
   1    81   1     0     1     1  0.00810    0.00810    0.0001000 
   1    82   1     0     1     1  0.00820    0.00820    0.0001000 
   1    83   1     0     1     1  0.00830    0.00830    0.0001000 
   1    84   1     0     1     1  0.00840    0.00840    0.0001000 
   1    85   1     0     1     1  0.00850    0.00850    0.0001000 
   1    86   1     0     1     1  0.00860    0.00860    0.0001000 
   1    87   1     0     1     1  0.00870    0.00870    0.0001000 
   1    88   1     0     1     1  0.00880    0.00880    0.0001000 
   1    89   1     0     1     1  0.00890    0.00890    0.0001000 
   1    90   1     0     1     1  0.00900    0.00900    0.0001000 
   1    91   1     0     1     1  0.00910    0.00910    0.0001000 
   1    92   1     0     1     1  0.00920    0.00920    0.0001000 
   1    93   1     0     1     1  0.00930    0.00930    0.0001000 
   1    94   1     0     1     1  0.00940    0.00940    0.0001000 
   1    95   1     0     1     1  0.00950    0.00950    0.0001000 
   1    96   1     0     1     1  0.00960    0.00960    0.0001000 
   1    97   1     0     1     1  0.00970    0.00970    0.0001000 
   1    98   1     0     1     1  0.00980    0.00980    0.0001000 
   1    99   1     0     1     1  0.00990    0.00990    0.0001000 
   1   100   1     0     1     1  0.0100     0.0100     0.0001000 
   1   101   1     0     1     1  0.0101     0.0101     0.0001000 
   1   102   1     0     1     1  0.0102     0.0102     0.0001000 
   1   103   1     0     1     1  0.0103     0.0103     0.0001000 
   1   104   1     0     1     1  0.0104     0.0104     0.0001000 
   1   105   1     0     1     1  0.0105     0.0105     0.0001000 
   1   106   1     0     1     1  0.0106     0.0106     0.0001000 
   1   107   1     0     1     1  0.0107     0.0107     0.0001000 
   1   108   1     0     1     1  0.0108     0.0108     0.0001000 
   1   109   1     0     1     1  0.0109     0.0109     0.0001000 
   1   110   1     0     1     1  0.0110     0.0110     0.0001000 
   1   111   1     0     1     1  0.0111     0.0111     0.0001000 
   1   112   1     0     1     1  0.0112     0.0112     0.0001000 
   1   113   1     0     1     1  0.0113     0.0113     0.0001000 
   1   114   1     0     1     1  0.0114     0.0114     0.0001000 
   1   115   1     0     1     1  0.0115     0.0115     0.0001000 
   1   116   1     0     1     1  0.0116     0.0116     0.0001000 
   1   117   1     0     1     1  0.0117     0.0117     0.0001000 
   1   118   1     0     1     1  0.0118     0.0118     0.0001000 
   1   119   1     0     1     1  0.0119     0.0119     0.0001000 
   1   120   1     0     1     1  0.0120     0.0120     0.0001000 
   1   121   1     0     1     1  0.0121     0.0121     0.0001000 
   1   122   1     0     1     1  0.0122     0.0122     0.0001000 
   1   123   1     0     1     1  0.0123     0.0123     0.0001000 
   1   124   1     0     1     1  0.0124     0.0124     0.0001000 
   1   125   1     0     1     1  0.0125     0.0125     0.0001000 
   1   126   1     0     1     1  0.0126     0.0126     0.0001000 
   1   127   1     0     1     1  0.0127     0.0127     0.0001000 
   1   128   1     0     1     1  0.0128     0.0128     0.0001000 
   1   129   1     0     1     1  0.0129     0.0129     0.0001000 
   1   130   1     0     1     1  0.0130     0.0130     0.0001000 
   1   131   1     0     1     1  0.0131     0.0131     0.0001000 
   1   132   1     0     1     1  0.0132     0.0132     0.0001000 
   1   133   1     0     1     1  0.0133     0.0133     0.0001000 
   1   134   1     0     1     1  0.0134     0.0134     0.0001000 
   1   135   1     0     1     1  0.0135     0.0135     0.0001000 
   1   136   1     0     1     1  0.0136     0.0136     0.0001000 
   1   137   1     0     1     1  0.0137     0.0137     0.0001000 
   1   138   1     0     1     1  0.0138     0.0138     0.0001000 
   1   139   1     0     1     1  0.0139     0.0139     0.0001000 
   1   140   1     0     1     1  0.0140     0.0140     0.0001000 
   1   141   1     0     1     1  0.0141     0.0141     0.0001000 
   1   142   1     0     1     1  0.0142     0.0142     0.0001000 
   1   143   1     0     1     1  0.0143     0.0143     0.0001000 
   1   144   1     0     1     1  0.0144     0.0144     0.0001000 
   1   145   1     0     1     1  0.0145     0.0145     0.0001000 
   1   146   1     0     1     1  0.0146     0.0146     0.0001000 
   1   147   1     0     1     1  0.0147     0.0147     0.0001000 
   1   148   1     0     1     1  0.0148     0.0148     0.0001000 
   1   149   1     0     1     1  0.0149     0.0149     0.0001000 
   1   150   1     0     1     1  0.0150     0.0150     0.0001000 
   1   151   1     0     1     1  0.0151     0.0151     0.0001000 
   1   152   1     0     1     1  0.0152     0.0152     0.0001000 
   1   153   1     0     1     1  0.0153     0.0153     0.0001000 
   1   154   1     0     1     1  0.0154     0.0154     0.0001000 
   1   155   1     0     1     1  0.0155     0.0155     0.0001000 
   1   156   1     0     1     1  0.0156     0.0156     0.0001000 
   1   157   1     0     1     1  0.0157     0.0157     0.0001000 
   1   158   1     0     1     1  0.0158     0.0158     0.0001000 
   1   159   1     0     1     1  0.0159     0.0159     0.0001000 
   1   160   1     0     1     1  0.0160     0.0160     0.0001000 
   1   161   1     0     1     1  0.0161     0.0161     0.0001000 
   1   162   1     0     1     1  0.0162     0.0162     0.0001000 
   1   163   1     0     1     1  0.0163     0.0163     0.0001000 
   1   164   1     0     1     1  0.0164     0.0164     0.0001000 
   1   165   1     0     1     1  0.0165     0.0165     0.0001000 
   1   166   1     0     1     1  0.0166     0.0166     0.0001000 
   1   167   1     0     1     1  0.0167     0.0167     0.0001000 
   1   168   1     0     1     1  0.0168     0.0168     0.0001000 
   1   169   1     0     1     1  0.0169     0.0169     0.0001000 
   1   170   1     0     1     1  0.0170     0.0170     0.0001000 
   1   171   1     0     1     1  0.0171     0.0171     0.0001000 
   1   172   1     0     1     1  0.0172     0.0172     0.0001000 
   1   173   1     0     1     1  0.0173     0.0173     0.0001000 
   1   174   1     0     1     1  0.0174     0.0174     0.0001000 
   1   175   1     0     1     1  0.0175     0.0175     0.0001000 
   1   176   1     0     1     1  0.0176     0.0176     0.0001000 
   1   177   1     0     1     1  0.0177     0.0177     0.0001000 
   1   178   1     0     1     1  0.0178     0.0178     0.0001000 
   1   179   1     0     1     1  0.0179     0.0179     0.0001000 
   1   180   1     0     1     1  0.0180     0.0180     0.0001000 
   1   181   1     0     1     1  0.0181     0.0181     0.0001000 
   1   182   1     0     1     1  0.0182     0.0182     0.0001000 
   1   183   1     0     1     1  0.0183     0.0183     0.0001000 
   1   184   1     0     1     1  0.0184     0.0184     0.0001000 
   1   185   1     0     1     1  0.0185     0.0185     0.0001000 
   1   186   1     0     1     1  0.0186     0.0186     0.0001000 
   1   187   1     0     1     1  0.0187     0.0187     0.0001000 
   1   188   1     0     1     1  0.0188     0.0188     0.0001000 
   1   189   1     0     1     1  0.0189     0.0189     0.0001000 
   1   190   1     0     1     1  0.0190     0.0190     0.0001000 
   1   191   1     0     1     1  0.0191     0.0191     0.0001000 
   1   192   1     0     1     1  0.0192     0.0192     0.0001000 
   1   193   1     0     1     1  0.0193     0.0193     0.0001000 
   1   194   1     0     1     1  0.0194     0.0194     0.0001000 
   1   195   1     0     1     1  0.0195     0.0195     0.0001000 
   1   196   1     0     1     1  0.0196     0.0196     0.0001000 
   1   197   1     0     1     1  0.0197     0.0197     0.0001000 
   1   198   1     0     1     1  0.0198     0.0198     0.0001000 
   1   199   1     0     1     1  0.0199     0.0199     0.0001000 
   1   200   1     0     1     1  0.0200     0.0200     0.0001000 
   1   201   1     0     1     1  0.0201     0.0201     0.0001000 
   1   202   1     0     1     1  0.0202     0.0202     0.0001000 
   1   203   1     0     1     1  0.0203     0.0203     0.0001000 
   1   204   1     0     1     1  0.0204     0.0204     0.0001000 
   1   205   1     0     1     1  0.0205     0.0205     0.0001000 
   1   206   1     0     1     1  0.0206     0.0206     0.0001000 
   1   207   1     0     1     1  0.0207     0.0207     0.0001000 
   1   208   1     0     1     1  0.0208     0.0208     0.0001000 
   1   209   1     0     1     1  0.0209     0.0209     0.0001000 
   1   210   1     0     1     1  0.0210     0.0210     0.0001000 
   1   211   1     0     1     1  0.0211     0.0211     0.0001000 
   1   212   1     0     1     1  0.0212     0.0212     0.0001000 
   1   213   1     0     1     1  0.0213     0.0213     0.0001000 
   1   214   1     0     1     1  0.0214     0.0214     0.0001000 
   1   215   1     0     1     1  0.0215     0.0215     0.0001000 
   1   216   1     0     1     1  0.0216     0.0216     0.0001000 
   1   217   1     0     1     1  0.0217     0.0217     0.0001000 
   1   218   1     0     1     1  0.0218     0.0218     0.0001000 
   1   219   1     0     1     1  0.0219     0.0219     0.0001000 
   1   220   1     0     1     1  0.0220     0.0220     0.0001000 
   1   221   1     0     1     1  0.0221     0.0221     0.0001000 
   1   222   1     0     1     1  0.0222     0.0222     0.0001000 
   1   223   1     0     1     1  0.0223     0.0223     0.0001000 
   1   224   1     0     1     1  0.0224     0.0224     0.0001000 
   1   225   1     0     1     1  0.0225     0.0225     0.0001000 
   1   226   1     0     1     1  0.0226     0.0226     0.0001000 
   1   227   1     0     1     1  0.0227     0.0227     0.0001000 
   1   228   1     0     1     1  0.0228     0.0228     0.0001000 
   1   229   1     0     1     1  0.0229     0.0229     0.0001000 
   1   230   1     0     1     1  0.0230     0.0230     0.0001000 
   1   231   1     0     1     1  0.0231     0.0231     0.0001000 
   1   232   1     0     1     1  0.0232     0.0232     0.0001000 
   1   233   1     0     1     1  0.0233     0.0233     0.0001000 
   1   234   1     0     1     1  0.0234     0.0234     0.0001000 
   1   235   1     0     1     1  0.0235     0.0235     0.0001000 
   1   236   1     0     1     1  0.0236     0.0236     0.0001000 
   1   237   1     0     1     1  0.0237     0.0237     0.0001000 
   1   238   1     0     1     1  0.0238     0.0238     0.0001000 
   1   239   1     0     1     1  0.0239     0.0239     0.0001000 
   1   240   1     0     1     1  0.0240     0.0240     0.0001000 
   1   241   1     0     1     1  0.0241     0.0241     0.0001000 
   1   242   1     0     1     1  0.0242     0.0242     0.0001000 
   1   243   1     0     1     1  0.0243     0.0243     0.0001000 
   1   244   1     0     1     1  0.0244     0.0244     0.0001000 
   1   245   1     0     1     1  0.0245     0.0245     0.0001000 
   1   246   1     0     1     1  0.0246     0.0246     0.0001000 
   1   247   1     0     1     1  0.0247     0.0247     0.0001000 
   1   248   1     0     1     1  0.0248     0.0248     0.0001000 
   1   249   1     0     1     1  0.0249     0.0249     0.0001000 
   1   250   1     0     1     1  0.0250     0.0250     0.0001000 
   1   251   1     0     1     1  0.0251     0.0251     0.0001000 
   1   252   1     0     1     1  0.0252     0.0252     0.0001000 
   1   253   1     0     1     1  0.0253     0.0253     0.0001000 
   1   254   1     0     1     1  0.0254     0.0254     0.0001000 
   1   255   1     0     1     1  0.0255     0.0255     0.0001000 
   1   256   1     0     1     1  0.0256     0.0256     0.0001000 
   1   257   1     0     1     1  0.0257     0.0257     0.0001000 
   1   258   1     0     1     1  0.0258     0.0258     0.0001000 
   1   259   1     0     1     1  0.0259     0.0259     0.0001000 
   1   260   1     0     1     1  0.0260     0.0260     0.0001000 
   1   261   1     0     1     1  0.0261     0.0261     0.0001000 
   1   262   1     0     1     1  0.0262     0.0262     0.0001000 
   1   263   1     0     1     1  0.0263     0.0263     0.0001000 
   1   264   1     0     1     1  0.0264     0.0264     0.0001000 
   1   265   1     0     1     1  0.0265     0.0265     0.0001000 
   1   266   1     0     1     1  0.0266     0.0266     0.0001000 
   1   267   1     0     1     1  0.0267     0.0267     0.0001000 
   1   268   1     0     1     1  0.0268     0.0268     0.0001000 
   1   269   1     0     1     1  0.0269     0.0269     0.0001000 
   1   270   1     0     1     1  0.0270     0.0270     0.0001000 
   1   271   1     0     1     1  0.0271     0.0271     0.0001000 
   1   272   1     0     1     1  0.0272     0.0272     0.0001000 
   1   273   1     0     1     1  0.0273     0.0273     0.0001000 
   1   274   1     0     1     1  0.0274     0.0274     0.0001000 
   1   275   1     0     1     1  0.0275     0.0275     0.0001000 
   1   276   1     0     1     1  0.0276     0.0276     0.0001000 
   1   277   1     0     1     1  0.0277     0.0277     0.0001000 
   1   278   1     0     1     1  0.0278     0.0278     0.0001000 
   1   279   1     0     1     1  0.0279     0.0279     0.0001000 
   1   280   1     0     1     1  0.0280     0.0280     0.0001000 
   1   281   1     0     1     1  0.0281     0.0281     0.0001000 
   1   282   1     0     1     1  0.0282     0.0282     0.0001000 
   1   283   1     0     1     1  0.0283     0.0283     0.0001000 
   1   284   1     0     1     1  0.0284     0.0284     0.0001000 
   1   285   1     0     1     1  0.0285     0.0285     0.0001000 
   1   286   1     0     1     1  0.0286     0.0286     0.0001000 
   1   287   1     0     1     1  0.0287     0.0287     0.0001000 
   1   288   1     0     1     1  0.0288     0.0288     0.0001000 
   1   289   1     0     1     1  0.0289     0.0289     0.0001000 
   1   290   1     0     1     1  0.0290     0.0290     0.0001000 
   1   291   1     0     1     1  0.0291     0.0291     0.0001000 
   1   292   1     0     1     1  0.0292     0.0292     0.0001000 
   1   293   1     0     1     1  0.0293     0.0293     0.0001000 
   1   294   1     0     1     1  0.0294     0.0294     0.0001000 
   1   295   1     0     1     1  0.0295     0.0295     0.0001000 
   1   296   1     0     1     1  0.0296     0.0296     0.0001000 
   1   297   1     0     1     1  0.0297     0.0297     0.0001000 
   1   298   1     0     1     1  0.0298     0.0298     0.0001000 
   1   299   1     0     1     1  0.0299     0.0299     0.0001000 
   1   300   1     0     1     1  0.0300     0.0300     0.0001000 
   1   301   1     0     1     1  0.0301     0.0301     0.0001000 
   1   302   1     0     1     1  0.0302     0.0302     0.0001000 
   1   303   1     0     1     1  0.0303     0.0303     0.0001000 
   1   304   1     0     1     1  0.0304     0.0304     0.0001000 
   1   305   1     0     1     1  0.0305     0.0305     0.0001000 
   1   306   1     0     1     1  0.0306     0.0306     0.0001000 
   1   307   1     0     1     1  0.0307     0.0307     0.0001000 
   1   308   1     0     1     1  0.0308     0.0308     0.0001000 
   1   309   1     0     1     1  0.0309     0.0309     0.0001000 
   1   310   1     0     1     1  0.0310     0.0310     0.0001000 
   1   311   1     0     1     1  0.0311     0.0311     0.0001000 
   1   312   1     0     1     1  0.0312     0.0312     0.0001000 
   1   313   1     0     1     1  0.0313     0.0313     0.0001000 
   1   314   1     0     1     1  0.0314     0.0314     0.0001000 
   1   315   1     0     1     1  0.0315     0.0315     0.0001000 
   1   316   1     0     1     1  0.0316     0.0316     0.0001000 
   1   317   1     0     1     1  0.0317     0.0317     0.0001000 
   1   318   1     0     1     1  0.0318     0.0318     0.0001000 
   1   319   1     0     1     1  0.0319     0.0319     0.0001000 
   1   320   1     0     1     1  0.0320     0.0320     0.0001000 
   1   321   1     0     1     1  0.0321     0.0321     0.0001000 
   1   322   1     0     1     1  0.0322     0.0322     0.0001000 
   1   323   1     0     1     1  0.0323     0.0323     0.0001000 
   1   324   1     0     1     1  0.0324     0.0324     0.0001000 
   1   325   1     0     1     1  0.0325     0.0325     0.0001000 
   1   326   1     0     1     1  0.0326     0.0326     0.0001000 
   1   327   1     0     1     1  0.0327     0.0327     0.0001000 
   1   328   1     0     1     1  0.0328     0.0328     0.0001000 
   1   329   1     0     1     1  0.0329     0.0329     0.0001000 
   1   330   1     0     1     1  0.0330     0.0330     0.0001000 
   1   331   1     0     1     1  0.0331     0.0331     0.0001000 
   1   332   1     0     1     1  0.0332     0.0332     0.0001000 
   1   333   1     0     1     1  0.0333     0.0333     0.0001000 
   1   334   1     0     1     1  0.0334     0.0334     0.0001000 
   1   335   1     0     1     1  0.0335     0.0335     0.0001000 
   1   336   1     0     1     1  0.0336     0.0336     0.0001000 
   1   337   1     0     1     1  0.0337     0.0337     0.0001000 
   1   338   1     0     1     1  0.0338     0.0338     0.0001000 
   1   339   1     0     1     1  0.0339     0.0339     0.0001000 
   1   340   1     0     1     1  0.0340     0.0340     0.0001000 
   1   341   1     0     1     1  0.0341     0.0341     0.0001000 
   1   342   1     0     1     1  0.0342     0.0342     0.0001000 
   1   343   1     0     1     1  0.0343     0.0343     0.0001000 
   1   344   1     0     1     1  0.0344     0.0344     0.0001000 
   1   345   1     0     1     1  0.0345     0.0345     0.0001000 
   1   346   1     0     1     1  0.0346     0.0346     0.0001000 
   1   347   1     0     1     1  0.0347     0.0347     0.0001000 
   1   348   1     0     1     1  0.0348     0.0348     0.0001000 
   1   349   1     0     1     1  0.0349     0.0349     0.0001000 
   1   350   1     0     1     1  0.0350     0.0350     0.0001000 
   1   351   1     0     1     1  0.0351     0.0351     0.0001000 
   1   352   1     0     1     1  0.0352     0.0352     0.0001000 
   1   353   1     0     1     1  0.0353     0.0353     0.0001000 
   1   354   1     0     1     1  0.0354     0.0354     0.0001000 
   1   355   1     0     1     1  0.0355     0.0355     0.0001000 
   1   356   1     0     1     1  0.0356     0.0356     0.0001000 
   1   357   1     0     1     1  0.0357     0.0357     0.0001000 
   1   358   1     0     1     1  0.0358     0.0358     0.0001000 
   1   359   1     0     1     1  0.0359     0.0359     0.0001000 
   1   360   1     0     1     1  0.0360     0.0360     0.0001000 
   1   361   1     0     1     1  0.0361     0.0361     0.0001000 
   1   362   1     0     1     1  0.0362     0.0362     0.0001000 
   1   363   1     0     1     1  0.0363     0.0363     0.0001000 
   1   364   1     0     1     1  0.0364     0.0364     0.0001000 
   1   365   1     0     1     1  0.0365     0.0365     0.0001000 
   1   366   1     0     1     1  0.0366     0.0366     0.0001000 
   1   367   1     0     1     1  0.0367     0.0367     0.0001000 
   1   368   1     0     1     1  0.0368     0.0368     0.0001000 
   1   369   1     0     1     1  0.0369     0.0369     0.0001000 
   1   370   1     0     1     1  0.0370     0.0370     0.0001000 
   1   371   1     0     1     1  0.0371     0.0371     0.0001000 
   1   372   1     0     1     1  0.0372     0.0372     0.0001000 
   1   373   1     0     1     1  0.0373     0.0373     0.0001000 
   1   374   1     0     1     1  0.0374     0.0374     0.0001000 
   1   375   1     0     1     1  0.0375     0.0375     0.0001000 
   1   376   1     0     1     1  0.0376     0.0376     0.0001000 
   1   377   1     0     1     1  0.0377     0.0377     0.0001000 
   1   378   1     0     1     1  0.0378     0.0378     0.0001000 
   1   379   1     0     1     1  0.0379     0.0379     0.0001000 
   1   380   1     0     1     1  0.0380     0.0380     0.0001000 
   1   381   1     0     1     1  0.0381     0.0381     0.0001000 
   1   382   1     0     1     1  0.0382     0.0382     0.0001000 
   1   383   1     0     1     1  0.0383     0.0383     0.0001000 
   1   384   1     0     1     1  0.0384     0.0384     0.0001000 
   1   385   1     0     1     1  0.0385     0.0385     0.0001000 
   1   386   1     0     1     1  0.0386     0.0386     0.0001000 
   1   387   1     0     1     1  0.0387     0.0387     0.0001000 
   1   388   1     0     1     1  0.0388     0.0388     0.0001000 
   1   389   1     0     1     1  0.0389     0.0389     0.0001000 
   1   390   1     0     1     1  0.0390     0.0390     0.0001000 
   1   391   1     0     1     1  0.0391     0.0391     0.0001000 
   1   392   1     0     1     1  0.0392     0.0392     0.0001000 
   1   393   1     0     1     1  0.0393     0.0393     0.0001000 
   1   394   1     0     1     1  0.0394     0.0394     0.0001000 
   1   395   1     0     1     1  0.0395     0.0395     0.0001000 
   1   396   1     0     1     1  0.0396     0.0396     0.0001000 
   1   397   1     0     1     1  0.0397     0.0397     0.0001000 
   1   398   1     0     1     1  0.0398     0.0398     0.0001000 
   1   399   1     0     1     1  0.0399     0.0399     0.0001000 
   1   400   1     0     1     1  0.0400     0.0400     0.0001000 
   1   401   1     0     1     1  0.0401     0.0401     0.0001000 
   1   402   1     0     1     1  0.0402     0.0402     0.0001000 
   1   403   1     0     1     1  0.0403     0.0403     0.0001000 
   1   404   1     0     1     1  0.0404     0.0404     0.0001000 
   1   405   1     0     1     1  0.0405     0.0405     0.0001000 
   1   406   1     0     1     1  0.0406     0.0406     0.0001000 
   1   407   1     0     1     1  0.0407     0.0407     0.0001000 
   1   408   1     0     1     1  0.0408     0.0408     0.0001000 
   1   409   1     0     1     1  0.0409     0.0409     0.0001000 
   1   410   1     0     1     1  0.0410     0.0410     0.0001000 
   1   411   1     0     1     1  0.0411     0.0411     0.0001000 
   1   412   1     0     1     1  0.0412     0.0412     0.0001000 
   1   413   1     0     1     1  0.0413     0.0413     0.0001000 
   1   414   1     0     1     1  0.0414     0.0414     0.0001000 
   1   415   1     0     1     1  0.0415     0.0415     0.0001000 
   1   416   1     0     1     1  0.0416     0.0416     0.0001000 
   1   417   1     0     1     1  0.0417     0.0417     0.0001000 
   1   418   1     0     1     1  0.0418     0.0418     0.0001000 
   1   419   1     0     1     1  0.0419     0.0419     0.0001000 
   1   420   1     0     1     1  0.0420     0.0420     0.0001000 
   1   421   1     0     1     1  0.0421     0.0421     0.0001000 
   1   422   1     0     1     1  0.0422     0.0422     0.0001000 
   1   423   1     0     1     1  0.0423     0.0423     0.0001000 
   1   424   1     0     1     1  0.0424     0.0424     0.0001000 
   1   425   1     0     1     1  0.0425     0.0425     0.0001000 
   1   426   1     0     1     1  0.0426     0.0426     0.0001000 
   1   427   1     0     1     1  0.0427     0.0427     0.0001000 
   1   428   1     0     1     1  0.0428     0.0428     0.0001000 
   1   429   1     0     1     1  0.0429     0.0429     0.0001000 
   1   430   1     0     1     1  0.0430     0.0430     0.0001000 
   1   431   1     0     1     1  0.0431     0.0431     0.0001000 
   1   432   1     0     1     1  0.0432     0.0432     0.0001000 
   1   433   1     0     1     1  0.0433     0.0433     0.0001000 
   1   434   1     0     1     1  0.0434     0.0434     0.0001000 
   1   435   1     0     1     1  0.0435     0.0435     0.0001000 
   1   436   1     0     1     1  0.0436     0.0436     0.0001000 
   1   437   1     0     1     1  0.0437     0.0437     0.0001000 
   1   438   1     0     1     1  0.0438     0.0438     0.0001000 
   1   439   1     0     1     1  0.0439     0.0439     0.0001000 
   1   440   1     0     1     1  0.0440     0.0440     0.0001000 
   1   441   1     0     1     1  0.0441     0.0441     0.0001000 
   1   442   1     0     1     1  0.0442     0.0442     0.0001000 
   1   443   1     0     1     1  0.0443     0.0443     0.0001000 
   1   444   1     0     1     1  0.0444     0.0444     0.0001000 
   1   445   1     0     1     1  0.0445     0.0445     0.0001000 
   1   446   1     0     1     1  0.0446     0.0446     0.0001000 
   1   447   1     0     1     1  0.0447     0.0447     0.0001000 
   1   448   1     0     1     1  0.0448     0.0448     0.0001000 
   1   449   1     0     1     1  0.0449     0.0449     0.0001000 
   1   450   1     0     1     1  0.0450     0.0450     0.0001000 
   1   451   1     0     1     1  0.0451     0.0451     0.0001000 
   1   452   1     0     1     1  0.0452     0.0452     0.0001000 
   1   453   1     0     1     1  0.0453     0.0453     0.0001000 
   1   454   1     0     1     1  0.0454     0.0454     0.0001000 
   1   455   1     0     1     1  0.0455     0.0455     0.0001000 
   1   456   1     0     1     1  0.0456     0.0456     0.0001000 
   1   457   1     0     1     1  0.0457     0.0457     0.0001000 
   1   458   1     0     1     1  0.0458     0.0458     0.0001000 
   1   459   1     0     1     1  0.0459     0.0459     0.0001000 
   1   460   1     0     1     1  0.0460     0.0460     0.0001000 
   1   461   1     0     1     1  0.0461     0.0461     0.0001000 
   1   462   1     0     1     1  0.0462     0.0462     0.0001000 
   1   463   1     0     1     1  0.0463     0.0463     0.0001000 
   1   464   1     0     1     1  0.0464     0.0464     0.0001000 
   1   465   1     0     1     1  0.0465     0.0465     0.0001000 
   1   466   1     0     1     1  0.0466     0.0466     0.0001000 
   1   467   1     0     1     1  0.0467     0.0467     0.0001000 
   1   468   1     0     1     1  0.0468     0.0468     0.0001000 
   1   469   1     0     1     1  0.0469     0.0469     0.0001000 
   1   470   1     0     1     1  0.0470     0.0470     0.0001000 
   1   471   1     0     1     1  0.0471     0.0471     0.0001000 
   1   472   1     0     1     1  0.0472     0.0472     0.0001000 
   1   473   1     0     1     1  0.0473     0.0473     0.0001000 
   1   474   1     0     1     1  0.0474     0.0474     0.0001000 
   1   475   1     0     1     1  0.0475     0.0475     0.0001000 
   1   476   1     0     1     1  0.0476     0.0476     0.0001000 
   1   477   1     0     1     1  0.0477     0.0477     0.0001000 
   1   478   1     0     1     1  0.0478     0.0478     0.0001000 
   1   479   1     0     1     1  0.0479     0.0479     0.0001000 
   1   480   1     0     1     1  0.0480     0.0480     0.0001000 
   1   481   1     0     1     1  0.0481     0.0481     0.0001000 
   1   482   1     0     1     1  0.0482     0.0482     0.0001000 
   1   483   1     0     1     1  0.0483     0.0483     0.0001000 
   1   484   1     0     1     1  0.0484     0.0484     0.0001000 
   1   485   1     0     1     1  0.0485     0.0485     0.0001000 
   1   486   1     0     1     1  0.0486     0.0486     0.0001000 
   1   487   1     0     1     1  0.0487     0.0487     0.0001000 
   1   488   1     0     1     1  0.0488     0.0488     0.0001000 
   1   489   1     0     1     1  0.0489     0.0489     0.0001000 
   1   490   1     0     1     1  0.0490     0.0490     0.0001000 
   1   491   1     0     1     1  0.0491     0.0491     0.0001000 
   1   492   1     0     1     1  0.0492     0.0492     0.0001000 
   1   493   1     0     1     1  0.0493     0.0493     0.0001000 
   1   494   1     0     1     1  0.0494     0.0494     0.0001000 
   1   495   1     0     1     1  0.0495     0.0495     0.0001000 
   1   496   1     0     1     1  0.0496     0.0496     0.0001000 
   1   497   1     0     1     1  0.0497     0.0497     0.0001000 
   1   498   1     0     1     1  0.0498     0.0498     0.0001000 
   1   499   1     0     1     1  0.0499     0.0499     0.0001000 
   1   500   1     0     1     1  0.0500     0.0500     0.0001000 
   1   501   1     0     1     1  0.0501     0.0501     0.0001000 
   1   502   1     0     1     1  0.0502     0.0502     0.0001000 
   1   503   1     0     1     1  0.0503     0.0503     0.0001000 
   1   504   1     0     1     1  0.0504     0.0504     0.0001000 
   1   505   1     0     1     1  0.0505     0.0505     0.0001000 
   1   506   1     0     1     1  0.0506     0.0506     0.0001000 
   1   507   1     0     1     1  0.0507     0.0507     0.0001000 
   1   508   1     0     1     1  0.0508     0.0508     0.0001000 
   1   509   1     0     1     1  0.0509     0.0509     0.0001000 
   1   510   1     0     1     1  0.0510     0.0510     0.0001000 
   1   511   1     0     1     1  0.0511     0.0511     0.0001000 
   1   512   1     0     1     1  0.0512     0.0512     0.0001000 
   1   513   1     0     1     1  0.0513     0.0513     0.0001000 
   1   514   1     0     1     1  0.0514     0.0514     0.0001000 
   1   515   1     0     1     1  0.0515     0.0515     0.0001000 
   1   516   1     0     1     1  0.0516     0.0516     0.0001000 
   1   517   1     0     1     1  0.0517     0.0517     0.0001000 
   1   518   1     0     1     1  0.0518     0.0518     0.0001000 
   1   519   1     0     1     1  0.0519     0.0519     0.0001000 
   1   520   1     0     1     1  0.0520     0.0520     0.0001000 
   1   521   1     0     1     1  0.0521     0.0521     0.0001000 
   1   522   1     0     1     1  0.0522     0.0522     0.0001000 
   1   523   1     0     1     1  0.0523     0.0523     0.0001000 
   1   524   1     0     1     1  0.0524     0.0524     0.0001000 
   1   525   1     0     1     1  0.0525     0.0525     0.0001000 
   1   526   1     0     1     1  0.0526     0.0526     0.0001000 
   1   527   1     0     1     1  0.0527     0.0527     0.0001000 
   1   528   1     0     1     1  0.0528     0.0528     0.0001000 
   1   529   1     0     1     1  0.0529     0.0529     0.0001000 
   1   530   1     0     1     1  0.0530     0.0530     0.0001000 
   1   531   1     0     1     1  0.0531     0.0531     0.0001000 
   1   532   1     0     1     1  0.0532     0.0532     0.0001000 
   1   533   1     0     1     1  0.0533     0.0533     0.0001000 
   1   534   1     0     1     1  0.0534     0.0534     0.0001000 
   1   535   1     0     1     1  0.0535     0.0535     0.0001000 
   1   536   1     0     1     1  0.0536     0.0536     0.0001000 
   1   537   1     0     1     1  0.0537     0.0537     0.0001000 
   1   538   1     0     1     1  0.0538     0.0538     0.0001000 
   1   539   1     0     1     1  0.0539     0.0539     0.0001000 
   1   540   1     0     1     1  0.0540     0.0540     0.0001000 
   1   541   1     0     1     1  0.0541     0.0541     0.0001000 
   1   542   1     0     1     1  0.0542     0.0542     0.0001000 
   1   543   1     0     1     1  0.0543     0.0543     0.0001000 
   1   544   1     0     1     1  0.0544     0.0544     0.0001000 
   1   545   1     0     1     1  0.0545     0.0545     0.0001000 
   1   546   1     0     1     1  0.0546     0.0546     0.0001000 
   1   547   1     0     1     1  0.0547     0.0547     0.0001000 
   1   548   1     0     1     1  0.0548     0.0548     0.0001000 
   1   549   1     0     1     1  0.0549     0.0549     0.0001000 
   1   550   1     0     1     1  0.0550     0.0550     0.0001000 
   1   551   1     0     1     1  0.0551     0.0551     0.0001000 
   1   552   1     0     1     1  0.0552     0.0552     0.0001000 
   1   553   1     0     1     1  0.0553     0.0553     0.0001000 
   1   554   1     0     1     1  0.0554     0.0554     0.0001000 
   1   555   1     0     1     1  0.0555     0.0555     0.0001000 
   1   556   1     0     1     1  0.0556     0.0556     0.0001000 
   1   557   1     0     1     1  0.0557     0.0557     0.0001000 
   1   558   1     0     1     1  0.0558     0.0558     0.0001000 
   1   559   1     0     1     1  0.0559     0.0559     0.0001000 
   1   560   1     0     1     1  0.0560     0.0560     0.0001000 
   1   561   1     0     1     1  0.0561     0.0561     0.0001000 
   1   562   1     0     1     1  0.0562     0.0562     0.0001000 
   1   563   1     0     1     1  0.0563     0.0563     0.0001000 
   1   564   1     0     1     1  0.0564     0.0564     0.0001000 
   1   565   1     0     1     1  0.0565     0.0565     0.0001000 
   1   566   1     0     1     1  0.0566     0.0566     0.0001000 
   1   567   1     0     1     1  0.0567     0.0567     0.0001000 
   1   568   1     0     1     1  0.0568     0.0568     0.0001000 
   1   569   1     0     1     1  0.0569     0.0569     0.0001000 
   1   570   1     0     1     1  0.0570     0.0570     0.0001000 
   1   571   1     0     1     1  0.0571     0.0571     0.0001000 
   1   572   1     0     1     1  0.0572     0.0572     0.0001000 
   1   573   1     0     1     1  0.0573     0.0573     0.0001000 
   1   574   1     0     1     1  0.0574     0.0574     0.0001000 
   1   575   1     0     1     1  0.0575     0.0575     0.0001000 
   1   576   1     0     1     1  0.0576     0.0576     0.0001000 
   1   577   1     0     1     1  0.0577     0.0577     0.0001000 
   1   578   1     0     1     1  0.0578     0.0578     0.0001000 
   1   579   1     0     1     1  0.0579     0.0579     0.0001000 
   1   580   1     0     1     1  0.0580     0.0580     0.0001000 
   1   581   1     0     1     1  0.0581     0.0581     0.0001000 
   1   582   1     0     1     1  0.0582     0.0582     0.0001000 
   1   583   1     0     1     1  0.0583     0.0583     0.0001000 
   1   584   1     0     1     1  0.0584     0.0584     0.0001000 
   1   585   1     0     1     1  0.0585     0.0585     0.0001000 
   1   586   1     0     1     1  0.0586     0.0586     0.0001000 
   1   587   1     0     1     1  0.0587     0.0587     0.0001000 
   1   588   1     0     1     1  0.0588     0.0588     0.0001000 
   1   589   1     0     1     1  0.0589     0.0589     0.0001000 
   1   590   1     0     1     1  0.0590     0.0590     0.0001000 
   1   591   1     0     1     1  0.0591     0.0591     0.0001000 
   1   592   1     0     1     1  0.0592     0.0592     0.0001000 
   1   593   1     0     1     1  0.0593     0.0593     0.0001000 
   1   594   1     0     1     1  0.0594     0.0594     0.0001000 
   1   595   1     0     1     1  0.0595     0.0595     0.0001000 
   1   596   1     0     1     1  0.0596     0.0596     0.0001000 
   1   597   1     0     1     1  0.0597     0.0597     0.0001000 
   1   598   1     0     1     1  0.0598     0.0598     0.0001000 
   1   599   1     0     1     1  0.0599     0.0599     0.0001000 
   1   600   1     0     1     1  0.0600     0.0600     0.0001000 
   1   601   1     0     1     1  0.0601     0.0601     0.0001000 
   1   602   1     0     1     1  0.0602     0.0602     0.0001000 
   1   603   1     0     1     1  0.0603     0.0603     0.0001000 
   1   604   1     0     1     1  0.0604     0.0604     0.0001000 
   1   605   1     0     1     1  0.0605     0.0605     0.0001000 
   1   606   1     0     1     1  0.0606     0.0606     0.0001000 
   1   607   1     0     1     1  0.0607     0.0607     0.0001000 
   1   608   1     0     1     1  0.0608     0.0608     0.0001000 
   1   609   1     0     1     1  0.0609     0.0609     0.0001000 
   1   610   1     0     1     1  0.0610     0.0610     0.0001000 
   1   611   1     0     1     1  0.0611     0.0611     0.0001000 
   1   612   1     0     1     1  0.0612     0.0612     0.0001000 
   1   613   1     0     1     1  0.0613     0.0613     0.0001000 
   1   614   1     0     1     1  0.0614     0.0614     0.0001000 
   1   615   1     0     1     1  0.0615     0.0615     0.0001000 
   1   616   1     0     1     1  0.0616     0.0616     0.0001000 
   1   617   1     0     1     1  0.0617     0.0617     0.0001000 
   1   618   1     0     1     1  0.0618     0.0618     0.0001000 
   1   619   1     0     1     1  0.0619     0.0619     0.0001000 
   1   620   1     0     1     1  0.0620     0.0620     0.0001000 
   1   621   1     0     1     1  0.0621     0.0621     0.0001000 
   1   622   1     0     1     1  0.0622     0.0622     0.0001000 
   1   623   1     0     1     1  0.0623     0.0623     0.0001000 
   1   624   1     0     1     1  0.0624     0.0624     0.0001000 
   1   625   1     0     1     1  0.0625     0.0625     0.0001000 
   1   626   1     0     1     1  0.0626     0.0626     0.0001000 
   1   627   1     0     1     1  0.0627     0.0627     0.0001000 
   1   628   1     0     1     1  0.0628     0.0628     0.0001000 
   1   629   1     0     1     1  0.0629     0.0629     0.0001000 
   1   630   1     0     1     1  0.0630     0.0630     0.0001000 
   1   631   1     0     1     1  0.0631     0.0631     0.0001000 
   1   632   1     0     1     1  0.0632     0.0632     0.0001000 
   1   633   1     0     1     1  0.0633     0.0633     0.0001000 
   1   634   1     0     1     1  0.0634     0.0634     0.0001000 
   1   635   1     0     1     1  0.0635     0.0635     0.0001000 
   1   636   1     0     1     1  0.0636     0.0636     0.0001000 
   1   637   1     0     1     1  0.0637     0.0637     0.0001000 
   1   638   1     0     1     1  0.0638     0.0638     0.0001000 
   1   639   1     0     1     1  0.0639     0.0639     0.0001000 
   1   640   1     0     1     1  0.0640     0.0640     0.0001000 
   1   641   1     0     1     1  0.0641     0.0641     0.0001000 
   1   642   1     0     1     1  0.0642     0.0642     0.0001000 
   1   643   1     0     1     1  0.0643     0.0643     0.0001000 
   1   644   1     0     1     1  0.0644     0.0644     0.0001000 
   1   645   1     0     1     1  0.0645     0.0645     0.0001000 
   1   646   1     0     1     1  0.0646     0.0646     0.0001000 
   1   647   1     0     1     1  0.0647     0.0647     0.0001000 
   1   648   1     0     1     1  0.0648     0.0648     0.0001000 
   1   649   1     0     1     1  0.0649     0.0649     0.0001000 
   1   650   1     0     1     1  0.0650     0.0650     0.0001000 
   1   651   1     0     1     1  0.0651     0.0651     0.0001000 
   1   652   1     0     1     1  0.0652     0.0652     0.0001000 
   1   653   1     0     1     1  0.0653     0.0653     0.0001000 
   1   654   1     0     1     1  0.0654     0.0654     0.0001000 
   1   655   1     0     1     1  0.0655     0.0655     0.0001000 
   1   656   1     0     1     1  0.0656     0.0656     0.0001000 
   1   657   1     0     1     1  0.0657     0.0657     0.0001000 
   1   658   1     0     1     1  0.0658     0.0658     0.0001000 
   1   659   1     0     1     1  0.0659     0.0659     0.0001000 
   1   660   1     0     1     1  0.0660     0.0660     0.0001000 
   1   661   1     0     1     1  0.0661     0.0661     0.0001000 
   1   662   1     0     1     1  0.0662     0.0662     0.0001000 
   1   663   1     0     1     1  0.0663     0.0663     0.0001000 
   1   664   1     0     1     1  0.0664     0.0664     0.0001000 
   1   665   1     0     1     1  0.0665     0.0665     0.0001000 
   1   666   1     0     1     1  0.0666     0.0666     0.0001000 
   1   667   1     0     1     1  0.0667     0.0667     0.0001000 
   1   668   1     0     1     1  0.0668     0.0668     0.0001000 
   1   669   1     0     1     1  0.0669     0.0669     0.0001000 
   1   670   1     0     1     1  0.0670     0.0670     0.0001000 
   1   671   1     0     1     1  0.0671     0.0671     0.0001000 
   1   672   1     0     1     1  0.0672     0.0672     0.0001000 
   1   673   1     0     1     1  0.0673     0.0673     0.0001000 
   1   674   1     0     1     1  0.0674     0.0674     0.0001000 
   1   675   1     0     1     1  0.0675     0.0675     0.0001000 
   1   676   1     0     1     1  0.0676     0.0676     0.0001000 
   1   677   1     0     1     1  0.0677     0.0677     0.0001000 
   1   678   1     0     1     1  0.0678     0.0678     0.0001000 
   1   679   1     0     1     1  0.0679     0.0679     0.0001000 
   1   680   1     0     1     1  0.0680     0.0680     0.0001000 
   1   681   1     0     1     1  0.0681     0.0681     0.0001000 
   1   682   1     0     1     1  0.0682     0.0682     0.0001000 
   1   683   1     0     1     1  0.0683     0.0683     0.0001000 
   1   684   1     0     1     1  0.0684     0.0684     0.0001000 
   1   685   1     0     1     1  0.0685     0.0685     0.0001000 
   1   686   1     0     1     1  0.0686     0.0686     0.0001000 
   1   687   1     0     1     1  0.0687     0.0687     0.0001000 
   1   688   1     0     1     1  0.0688     0.0688     0.0001000 
   1   689   1     0     1     1  0.0689     0.0689     0.0001000 
   1   690   1     0     1     1  0.0690     0.0690     0.0001000 
   1   691   1     0     1     1  0.0691     0.0691     0.0001000 
   1   692   1     0     1     1  0.0692     0.0692     0.0001000 
   1   693   1     0     1     1  0.0693     0.0693     0.0001000 
   1   694   1     0     1     1  0.0694     0.0694     0.0001000 
   1   695   1     0     1     1  0.0695     0.0695     0.0001000 
   1   696   1     0     1     1  0.0696     0.0696     0.0001000 
   1   697   1     0     1     1  0.0697     0.0697     0.0001000 
   1   698   1     0     1     1  0.0698     0.0698     0.0001000 
   1   699   1     0     1     1  0.0699     0.0699     0.0001000 
   1   700   1     0     1     1  0.0700     0.0700     0.0001000 
   1   701   1     0     1     1  0.0701     0.0701     0.0001000 
   1   702   1     0     1     1  0.0702     0.0702     0.0001000 
   1   703   1     0     1     1  0.0703     0.0703     0.0001000 
   1   704   1     0     1     1  0.0704     0.0704     0.0001000 
   1   705   1     0     1     1  0.0705     0.0705     0.0001000 
   1   706   1     0     1     1  0.0706     0.0706     0.0001000 
   1   707   1     0     1     1  0.0707     0.0707     0.0001000 
   1   708   1     0     1     1  0.0708     0.0708     0.0001000 
   1   709   1     0     1     1  0.0709     0.0709     0.0001000 
   1   710   1     0     1     1  0.0710     0.0710     0.0001000 
   1   711   1     0     1     1  0.0711     0.0711     0.0001000 
   1   712   1     0     1     1  0.0712     0.0712     0.0001000 
   1   713   1     0     1     1  0.0713     0.0713     0.0001000 
   1   714   1     0     1     1  0.0714     0.0714     0.0001000 
   1   715   1     0     1     1  0.0715     0.0715     0.0001000 
   1   716   1     0     1     1  0.0716     0.0716     0.0001000 
   1   717   1     0     1     1  0.0717     0.0717     0.0001000 
   1   718   1     0     1     1  0.0718     0.0718     0.0001000 
   1   719   1     0     1     1  0.0719     0.0719     0.0001000 
   1   720   1     0     1     1  0.0720     0.0720     0.0001000 
   1   721   1     0     1     1  0.0721     0.0721     0.0001000 
   1   722   1     0     1     1  0.0722     0.0722     0.0001000 
   1   723   1     0     1     1  0.0723     0.0723     0.0001000 
   1   724   1     0     1     1  0.0724     0.0724     0.0001000 
   1   725   1     0     1     1  0.0725     0.0725     0.0001000 
   1   726   1     0     1     1  0.0726     0.0726     0.0001000 
   1   727   1     0     1     1  0.0727     0.0727     0.0001000 
   1   728   1     0     1     1  0.0728     0.0728     0.0001000 
   1   729   1     0     1     1  0.0729     0.0729     0.0001000 
   1   730   1     0     1     1  0.0730     0.0730     0.0001000 
   1   731   1     0     1     1  0.0731     0.0731     0.0001000 
   1   732   1     0     1     1  0.0732     0.0732     0.0001000 
   1   733   1     0     1     1  0.0733     0.0733     0.0001000 
   1   734   1     0     1     1  0.0734     0.0734     0.0001000 
   1   735   1     0     1     1  0.0735     0.0735     0.0001000 
   1   736   1     0     1     1  0.0736     0.0736     0.0001000 
   1   737   1     0     1     1  0.0737     0.0737     0.0001000 
   1   738   1     0     1     1  0.0738     0.0738     0.0001000 
   1   739   1     0     1     1  0.0739     0.0739     0.0001000 
   1   740   1     0     1     1  0.0740     0.0740     0.0001000 
   1   741   1     0     1     1  0.0741     0.0741     0.0001000 
   1   742   1     0     1     1  0.0742     0.0742     0.0001000 
   1   743   1     0     1     1  0.0743     0.0743     0.0001000 
   1   744   1     0     1     1  0.0744     0.0744     0.0001000 
   1   745   1     0     1     1  0.0745     0.0745     0.0001000 
   1   746   1     0     1     1  0.0746     0.0746     0.0001000 
   1   747   1     0     1     1  0.0747     0.0747     0.0001000 
   1   748   1     0     1     1  0.0748     0.0748     0.0001000 
   1   749   1     0     1     1  0.0749     0.0749     0.0001000 
   1   750   1     0     1     1  0.0750     0.0750     0.0001000 
   1   751   1     0     1     1  0.0751     0.0751     0.0001000 
   1   752   1     0     1     1  0.0752     0.0752     0.0001000 
   1   753   1     0     1     1  0.0753     0.0753     0.0001000 
   1   754   1     0     1     1  0.0754     0.0754     0.0001000 
   1   755   1     0     1     1  0.0755     0.0755     0.0001000 
   1   756   1     0     1     1  0.0756     0.0756     0.0001000 
   1   757   1     0     1     1  0.0757     0.0757     0.0001000 
   1   758   1     0     1     1  0.0758     0.0758     0.0001000 
   1   759   1     0     1     1  0.0759     0.0759     0.0001000 
   1   760   1     0     1     1  0.0760     0.0760     0.0001000 
   1   761   1     0     1     1  0.0761     0.0761     0.0001000 
   1   762   1     0     1     1  0.0762     0.0762     0.0001000 
   1   763   1     0     1     1  0.0763     0.0763     0.0001000 
   1   764   1     0     1     1  0.0764     0.0764     0.0001000 
   1   765   1     0     1     1  0.0765     0.0765     0.0001000 
   1   766   1     0     1     1  0.0766     0.0766     0.0001000 
   1   767   1     0     1     1  0.0767     0.0767     0.0001000 
   1   768   1     0     1     1  0.0768     0.0768     0.0001000 
   1   769   1     0     1     1  0.0769     0.0769     0.0001000 
   1   770   1     0     1     1  0.0770     0.0770     0.0001000 
   1   771   1     0     1     1  0.0771     0.0771     0.0001000 
   1   772   1     0     1     1  0.0772     0.0772     0.0001000 
   1   773   1     0     1     1  0.0773     0.0773     0.0001000 
   1   774   1     0     1     1  0.0774     0.0774     0.0001000 
   1   775   1     0     1     1  0.0775     0.0775     0.0001000 
   1   776   1     0     1     1  0.0776     0.0776     0.0001000 
   1   777   1     0     1     1  0.0777     0.0777     0.0001000 
   1   778   1     0     1     1  0.0778     0.0778     0.0001000 
   1   779   1     0     1     1  0.0779     0.0779     0.0001000 
   1   780   1     0     1     1  0.0780     0.0780     0.0001000 
   1   781   1     0     1     1  0.0781     0.0781     0.0001000 
   1   782   1     0     1     1  0.0782     0.0782     0.0001000 
   1   783   1     0     1     1  0.0783     0.0783     0.0001000 
   1   784   1     0     1     1  0.0784     0.0784     0.0001000 
   1   785   1     0     1     1  0.0785     0.0785     0.0001000 
   1   786   1     0     1     1  0.0786     0.0786     0.0001000 
   1   787   1     0     1     1  0.0787     0.0787     0.0001000 
   1   788   1     0     1     1  0.0788     0.0788     0.0001000 
   1   789   1     0     1     1  0.0789     0.0789     0.0001000 
   1   790   1     0     1     1  0.0790     0.0790     0.0001000 
   1   791   1     0     1     1  0.0791     0.0791     0.0001000 
   1   792   1     0     1     1  0.0792     0.0792     0.0001000 
   1   793   1     0     1     1  0.0793     0.0793     0.0001000 
   1   794   1     0     1     1  0.0794     0.0794     0.0001000 
   1   795   1     0     1     1  0.0795     0.0795     0.0001000 
   1   796   1     0     1     1  0.0796     0.0796     0.0001000 
   1   797   1     0     1     1  0.0797     0.0797     0.0001000 
   1   798   1     0     1     1  0.0798     0.0798     0.0001000 
   1   799   1     0     1     1  0.0799     0.0799     0.0001000 
   1   800   1     0     1     1  0.0800     0.0800     0.0001000 
   1   801   1     0     1     1  0.0801     0.0801     0.0001000 
   1   802   1     0     1     1  0.0802     0.0802     0.0001000 
   1   803   1     0     1     1  0.0803     0.0803     0.0001000 
   1   804   1     0     1     1  0.0804     0.0804     0.0001000 
   1   805   1     0     1     1  0.0805     0.0805     0.0001000 
   1   806   1     0     1     1  0.0806     0.0806     0.0001000 
   1   807   1     0     1     1  0.0807     0.0807     0.0001000 
   1   808   1     0     1     1  0.0808     0.0808     0.0001000 
   1   809   1     0     1     1  0.0809     0.0809     0.0001000 
   1   810   1     0     1     1  0.0810     0.0810     0.0001000 
   1   811   1     0     1     1  0.0811     0.0811     0.0001000 
   1   812   1     0     1     1  0.0812     0.0812     0.0001000 
   1   813   1     0     1     1  0.0813     0.0813     0.0001000 
   1   814   1     0     1     1  0.0814     0.0814     0.0001000 
   1   815   1     0     1     1  0.0815     0.0815     0.0001000 
   1   816   1     0     1     1  0.0816     0.0816     0.0001000 
   1   817   1     0     1     1  0.0817     0.0817     0.0001000 
   1   818   1     0     1     1  0.0818     0.0818     0.0001000 
   1   819   1     0     1     1  0.0819     0.0819     0.0001000 
   1   820   1     0     1     1  0.0820     0.0820     0.0001000 
   1   821   1     0     1     1  0.0821     0.0821     0.0001000 
   1   822   1     0     1     1  0.0822     0.0822     0.0001000 
   1   823   1     0     1     1  0.0823     0.0823     0.0001000 
   1   824   1     0     1     1  0.0824     0.0824     0.0001000 
   1   825   1     0     1     1  0.0825     0.0825     0.0001000 
   1   826   1     0     1     1  0.0826     0.0826     0.0001000 
   1   827   1     0     1     1  0.0827     0.0827     0.0001000 
   1   828   1     0     1     1  0.0828     0.0828     0.0001000 
   1   829   1     0     1     1  0.0829     0.0829     0.0001000 
   1   830   1     0     1     1  0.0830     0.0830     0.0001000 
   1   831   1     0     1     1  0.0831     0.0831     0.0001000 
   1   832   1     0     1     1  0.0832     0.0832     0.0001000 
   1   833   1     0     1     1  0.0833     0.0833     0.0001000 
   1   834   1     0     1     1  0.0834     0.0834     0.0001000 
   1   835   1     0     1     1  0.0835     0.0835     0.0001000 
   1   836   1     0     1     1  0.0836     0.0836     0.0001000 
   1   837   1     0     1     1  0.0837     0.0837     0.0001000 
   1   838   1     0     1     1  0.0838     0.0838     0.0001000 
   1   839   1     0     1     1  0.0839     0.0839     0.0001000 
   1   840   1     0     1     1  0.0840     0.0840     0.0001000 
   1   841   1     0     1     1  0.0841     0.0841     0.0001000 
   1   842   1     0     1     1  0.0842     0.0842     0.0001000 
   1   843   1     0     1     1  0.0843     0.0843     0.0001000 
   1   844   1     0     1     1  0.0844     0.0844     0.0001000 
   1   845   1     0     1     1  0.0845     0.0845     0.0001000 
   1   846   1     0     1     1  0.0846     0.0846     0.0001000 
   1   847   1     0     1     1  0.0847     0.0847     0.0001000 
   1   848   1     0     1     1  0.0848     0.0848     0.0001000 
   1   849   1     0     1     1  0.0849     0.0849     0.0001000 
   1   850   1     0     1     1  0.0850     0.0850     0.0001000 
   1   851   1     0     1     1  0.0851     0.0851     0.0001000 
   1   852   1     0     1     1  0.0852     0.0852     0.0001000 
   1   853   1     0     1     1  0.0853     0.0853     0.0001000 
   1   854   1     0     1     1  0.0854     0.0854     0.0001000 
   1   855   1     0     1     1  0.0855     0.0855     0.0001000 
   1   856   1     0     1     1  0.0856     0.0856     0.0001000 
   1   857   1     0     1     1  0.0857     0.0857     0.0001000 
   1   858   1     0     1     1  0.0858     0.0858     0.0001000 
   1   859   1     0     1     1  0.0859     0.0859     0.0001000 
   1   860   1     0     1     1  0.0860     0.0860     0.0001000 
   1   861   1     0     1     1  0.0861     0.0861     0.0001000 
   1   862   1     0     1     1  0.0862     0.0862     0.0001000 
   1   863   1     0     1     1  0.0863     0.0863     0.0001000 
   1   864   1     0     1     1  0.0864     0.0864     0.0001000 
   1   865   1     0     1     1  0.0865     0.0865     0.0001000 
   1   866   1     0     1     1  0.0866     0.0866     0.0001000 
   1   867   1     0     1     1  0.0867     0.0867     0.0001000 
   1   868   1     0     1     1  0.0868     0.0868     0.0001000 
   1   869   1     0     1     1  0.0869     0.0869     0.0001000 
   1   870   1     0     1     1  0.0870     0.0870     0.0001000 
   1   871   1     0     1     1  0.0871     0.0871     0.0001000 
   1   872   1     0     1     1  0.0872     0.0872     0.0001000 
   1   873   1     0     1     1  0.0873     0.0873     0.0001000 
   1   874   1     0     1     1  0.0874     0.0874     0.0001000 
   1   875   1     0     1     1  0.0875     0.0875     0.0001000 
   1   876   1     0     1     1  0.0876     0.0876     0.0001000 
   1   877   1     0     1     1  0.0877     0.0877     0.0001000 
   1   878   1     0     1     1  0.0878     0.0878     0.0001000 
   1   879   1     0     1     1  0.0879     0.0879     0.0001000 
   1   880   1     0     1     1  0.0880     0.0880     0.0001000 
   1   881   1     0     1     1  0.0881     0.0881     0.0001000 
   1   882   1     0     1     1  0.0882     0.0882     0.0001000 
   1   883   1     0     1     1  0.0883     0.0883     0.0001000 
   1   884   1     0     1     1  0.0884     0.0884     0.0001000 
   1   885   1     0     1     1  0.0885     0.0885     0.0001000 
   1   886   1     0     1     1  0.0886     0.0886     0.0001000 
   1   887   1     0     1     1  0.0887     0.0887     0.0001000 
   1   888   1     0     1     1  0.0888     0.0888     0.0001000 
   1   889   1     0     1     1  0.0889     0.0889     0.0001000 
   1   890   1     0     1     1  0.0890     0.0890     0.0001000 
   1   891   1     0     1     1  0.0891     0.0891     0.0001000 
   1   892   1     0     1     1  0.0892     0.0892     0.0001000 
   1   893   1     0     1     1  0.0893     0.0893     0.0001000 
   1   894   1     0     1     1  0.0894     0.0894     0.0001000 
   1   895   1     0     1     1  0.0895     0.0895     0.0001000 
   1   896   1     0     1     1  0.0896     0.0896     0.0001000 
   1   897   1     0     1     1  0.0897     0.0897     0.0001000 
   1   898   1     0     1     1  0.0898     0.0898     0.0001000 
   1   899   1     0     1     1  0.0899     0.0899     0.0001000 
   1   900   1     0     1     1  0.0900     0.0900     0.0001000 
   1   901   1     0     1     1  0.0901     0.0901     0.0001000 
   1   902   1     0     1     1  0.0902     0.0902     0.0001000 
   1   903   1     0     1     1  0.0903     0.0903     0.0001000 
   1   904   1     0     1     1  0.0904     0.0904     0.0001000 
   1   905   1     0     1     1  0.0905     0.0905     0.0001000 
   1   906   1     0     1     1  0.0906     0.0906     0.0001000 
   1   907   1     0     1     1  0.0907     0.0907     0.0001000 
   1   908   1     0     1     1  0.0908     0.0908     0.0001000 
   1   909   1     0     1     1  0.0909     0.0909     0.0001000 
   1   910   1     0     1     1  0.0910     0.0910     0.0001000 
   1   911   1     0     1     1  0.0911     0.0911     0.0001000 
   1   912   1     0     1     1  0.0912     0.0912     0.0001000 
   1   913   1     0     1     1  0.0913     0.0913     0.0001000 
   1   914   1     0     1     1  0.0914     0.0914     0.0001000 
   1   915   1     0     1     1  0.0915     0.0915     0.0001000 
   1   916   1     0     1     1  0.0916     0.0916     0.0001000 
   1   917   1     0     1     1  0.0917     0.0917     0.0001000 
   1   918   1     0     1     1  0.0918     0.0918     0.0001000 
   1   919   1     0     1     1  0.0919     0.0919     0.0001000 
   1   920   1     0     1     1  0.0920     0.0920     0.0001000 
   1   921   1     0     1     1  0.0921     0.0921     0.0001000 
   1   922   1     0     1     1  0.0922     0.0922     0.0001000 
   1   923   1     0     1     1  0.0923     0.0923     0.0001000 
   1   924   1     0     1     1  0.0924     0.0924     0.0001000 
   1   925   1     0     1     1  0.0925     0.0925     0.0001000 
   1   926   1     0     1     1  0.0926     0.0926     0.0001000 
   1   927   1     0     1     1  0.0927     0.0927     0.0001000 
   1   928   1     0     1     1  0.0928     0.0928     0.0001000 
   1   929   1     0     1     1  0.0929     0.0929     0.0001000 
   1   930   1     0     1     1  0.0930     0.0930     0.0001000 
   1   931   1     0     1     1  0.0931     0.0931     0.0001000 
   1   932   1     0     1     1  0.0932     0.0932     0.0001000 
   1   933   1     0     1     1  0.0933     0.0933     0.0001000 
   1   934   1     0     1     1  0.0934     0.0934     0.0001000 
   1   935   1     0     1     1  0.0935     0.0935     0.0001000 
   1   936   1     0     1     1  0.0936     0.0936     0.0001000 
   1   937   1     0     1     1  0.0937     0.0937     0.0001000 
   1   938   1     0     1     1  0.0938     0.0938     0.0001000 
   1   939   1     0     1     1  0.0939     0.0939     0.0001000 
   1   940   1     0     1     1  0.0940     0.0940     0.0001000 
   1   941   1     0     1     1  0.0941     0.0941     0.0001000 
   1   942   1     0     1     1  0.0942     0.0942     0.0001000 
   1   943   1     0     1     1  0.0943     0.0943     0.0001000 
   1   944   1     0     1     1  0.0944     0.0944     0.0001000 
   1   945   1     0     1     1  0.0945     0.0945     0.0001000 
   1   946   1     0     1     1  0.0946     0.0946     0.0001000 
   1   947   1     0     1     1  0.0947     0.0947     0.0001000 
   1   948   1     0     1     1  0.0948     0.0948     0.0001000 
   1   949   1     0     1     1  0.0949     0.0949     0.0001000 
   1   950   1     0     1     1  0.0950     0.0950     0.0001000 
   1   951   1     0     1     1  0.0951     0.0951     0.0001000 
   1   952   1     0     1     1  0.0952     0.0952     0.0001000 
   1   953   1     0     1     1  0.0953     0.0953     0.0001000 
   1   954   1     0     1     1  0.0954     0.0954     0.0001000 
   1   955   1     0     1     1  0.0955     0.0955     0.0001000 
   1   956   1     0     1     1  0.0956     0.0956     0.0001000 
   1   957   1     0     1     1  0.0957     0.0957     0.0001000 
   1   958   1     0     1     1  0.0958     0.0958     0.0001000 
   1   959   1     0     1     1  0.0959     0.0959     0.0001000 
   1   960   1     0     1     1  0.0960     0.0960     0.0001000 
   1   961   1     0     1     1  0.0961     0.0961     0.0001000 
   1   962   1     0     1     1  0.0962     0.0962     0.0001000 
   1   963   1     0     1     1  0.0963     0.0963     0.0001000 
   1   964   1     0     1     1  0.0964     0.0964     0.0001000 
   1   965   1     0     1     1  0.0965     0.0965     0.0001000 
   1   966   1     0     1     1  0.0966     0.0966     0.0001000 
   1   967   1     0     1     1  0.0967     0.0967     0.0001000 
   1   968   1     0     1     1  0.0968     0.0968     0.0001000 
   1   969   1     0     1     1  0.0969     0.0969     0.0001000 
   1   970   1     0     1     1  0.0970     0.0970     0.0001000 
   1   971   1     0     1     1  0.0971     0.0971     0.0001000 
   1   972   1     0     1     1  0.0972     0.0972     0.0001000 
   1   973   1     0     1     1  0.0973     0.0973     0.0001000 
   1   974   1     0     1     1  0.0974     0.0974     0.0001000 
   1   975   1     0     1     1  0.0975     0.0975     0.0001000 
   1   976   1     0     1     1  0.0976     0.0976     0.0001000 
   1   977   1     0     1     1  0.0977     0.0977     0.0001000 
   1   978   1     0     1     1  0.0978     0.0978     0.0001000 
   1   979   1     0     1     1  0.0979     0.0979     0.0001000 
   1   980   1     0     1     1  0.0980     0.0980     0.0001000 
   1   981   1     0     1     1  0.0981     0.0981     0.0001000 
   1   982   1     0     1     1  0.0982     0.0982     0.0001000 
   1   983   1     0     1     1  0.0983     0.0983     0.0001000 
   1   984   1     0     1     1  0.0984     0.0984     0.0001000 
   1   985   1     0     1     1  0.0985     0.0985     0.0001000 
   1   986   1     0     1     1  0.0986     0.0986     0.0001000 
   1   987   1     0     1     1  0.0987     0.0987     0.0001000 
   1   988   1     0     1     1  0.0988     0.0988     0.0001000 
   1   989   1     0     1     1  0.0989     0.0989     0.0001000 
   1   990   1     0     1     1  0.0990     0.0990     0.0001000 
   1   991   1     0     1     1  0.0991     0.0991     0.0001000 
   1   992   1     0     1     1  0.0992     0.0992     0.0001000 
   1   993   1     0     1     1  0.0993     0.0993     0.0001000 
   1   994   1     0     1     1  0.0994     0.0994     0.0001000 
   1   995   1     0     1     1  0.0995     0.0995     0.0001000 
   1   996   1     0     1     1  0.0996     0.0996     0.0001000 
   1   997   1     0     1     1  0.0997     0.0997     0.0001000 
   1   998   1     0     1     1  0.0998     0.0998     0.0001000 
   1   999   1     0     1     1  0.0999     0.0999     0.0001000 
   1  1000   1     0     1     1  0.100      0.100      0.0001000 
                          
 THE ANALYSIS HAS NOT BEEN COMPLETED
