 Abaqus/Standard 2023                  DATE 29-avr.-2024 TIME 16:17:56
 SUMMARY OF JOB INFORMATION:
 STEP  INC ATT SEVERE EQUIL TOTAL  TOTAL      STEP       INC OF       DOF    IF
               DISCON ITERS ITERS  TIME/    TIME/LPF    TIME/LPF    MONITOR RIKS
               ITERS               FREQ
   1     1   1     0     1     1  0.00100    0.00100    0.001000  
   1     2   1     0     1     1  0.00200    0.00200    0.001000  
   1     3   1     0     1     1  0.00300    0.00300    0.001000  
   1     4   1     0     1     1  0.00400    0.00400    0.001000  
   1     5   1     0     1     1  0.00500    0.00500    0.001000  
   1     6   1     0     1     1  0.00600    0.00600    0.001000  
   1     7   1     0     1     1  0.00700    0.00700    0.001000  
   1     8   1     0     1     1  0.00800    0.00800    0.001000  
   1     9   1     0     1     1  0.00900    0.00900    0.001000  
   1    10   1     0     1     1  0.0100     0.0100     0.001000  
   1    11   1     0     1     1  0.0110     0.0110     0.001000  
   1    12   1     0     1     1  0.0120     0.0120     0.001000  
   1    13   1     0     1     1  0.0130     0.0130     0.001000  
   1    14   1     0     1     1  0.0140     0.0140     0.001000  
   1    15   1     0     1     1  0.0150     0.0150     0.001000  
   1    16   1     0     1     1  0.0160     0.0160     0.001000  
   1    17   1     0     1     1  0.0170     0.0170     0.001000  
   1    18   1     0     1     1  0.0180     0.0180     0.001000  
   1    19   1     0     1     1  0.0190     0.0190     0.001000  
   1    20   1     0     1     1  0.0200     0.0200     0.001000  
   1    21   1     0     1     1  0.0210     0.0210     0.001000  
   1    22   1     0     1     1  0.0220     0.0220     0.001000  
   1    23   1     0     1     1  0.0230     0.0230     0.001000  
   1    24   1     0     1     1  0.0240     0.0240     0.001000  
   1    25   1     0     1     1  0.0250     0.0250     0.001000  
   1    26   1     0     1     1  0.0260     0.0260     0.001000  
   1    27   1     0     1     1  0.0270     0.0270     0.001000  
   1    28   1     0     1     1  0.0280     0.0280     0.001000  
   1    29   1     0     1     1  0.0290     0.0290     0.001000  
   1    30   1     0     1     1  0.0300     0.0300     0.001000  
   1    31   1     0     1     1  0.0310     0.0310     0.001000  
   1    32   1     0     1     1  0.0320     0.0320     0.001000  
   1    33   1     0     1     1  0.0330     0.0330     0.001000  
   1    34   1     0     1     1  0.0340     0.0340     0.001000  
   1    35   1     0     1     1  0.0350     0.0350     0.001000  
   1    36   1     0     1     1  0.0360     0.0360     0.001000  
   1    37   1     0     1     1  0.0370     0.0370     0.001000  
   1    38   1     0     1     1  0.0380     0.0380     0.001000  
   1    39   1     0     1     1  0.0390     0.0390     0.001000  
   1    40   1     0     1     1  0.0400     0.0400     0.001000  
   1    41   1     0     1     1  0.0410     0.0410     0.001000  
   1    42   1     0     1     1  0.0420     0.0420     0.001000  
   1    43   1     0     1     1  0.0430     0.0430     0.001000  
   1    44   1     0     1     1  0.0440     0.0440     0.001000  
   1    45   1     0     1     1  0.0450     0.0450     0.001000  
   1    46   1     0     1     1  0.0460     0.0460     0.001000  
   1    47   1     0     1     1  0.0470     0.0470     0.001000  
   1    48   1     0     1     1  0.0480     0.0480     0.001000  
   1    49   1     0     1     1  0.0490     0.0490     0.001000  
   1    50   1     0     1     1  0.0500     0.0500     0.001000  
   1    51   1     0     1     1  0.0510     0.0510     0.001000  
   1    52   1     0     1     1  0.0520     0.0520     0.001000  
   1    53   1     0     1     1  0.0530     0.0530     0.001000  
   1    54   1     0     1     1  0.0540     0.0540     0.001000  
   1    55   1     0     1     1  0.0550     0.0550     0.001000  
   1    56   1     0     1     1  0.0560     0.0560     0.001000  
   1    57   1     0     1     1  0.0570     0.0570     0.001000  
   1    58   1     0     1     1  0.0580     0.0580     0.001000  
   1    59   1     0     1     1  0.0590     0.0590     0.001000  
   1    60   1     0     1     1  0.0600     0.0600     0.001000  
   1    61   1     0     1     1  0.0610     0.0610     0.001000  
   1    62   1     0     1     1  0.0620     0.0620     0.001000  
   1    63   1     0     1     1  0.0630     0.0630     0.001000  
   1    64   1     0     1     1  0.0640     0.0640     0.001000  
   1    65   1     0     1     1  0.0650     0.0650     0.001000  
   1    66   1     0     1     1  0.0660     0.0660     0.001000  
   1    67   1     0     1     1  0.0670     0.0670     0.001000  
   1    68   1     0     1     1  0.0680     0.0680     0.001000  
   1    69   1     0     1     1  0.0690     0.0690     0.001000  
   1    70   1     0     1     1  0.0700     0.0700     0.001000  
   1    71   1     0     1     1  0.0710     0.0710     0.001000  
   1    72   1     0     1     1  0.0720     0.0720     0.001000  
   1    73   1     0     1     1  0.0730     0.0730     0.001000  
   1    74   1     0     1     1  0.0740     0.0740     0.001000  
   1    75   1     0     1     1  0.0750     0.0750     0.001000  
   1    76   1     0     1     1  0.0760     0.0760     0.001000  
   1    77   1     0     1     1  0.0770     0.0770     0.001000  
   1    78   1     0     1     1  0.0780     0.0780     0.001000  
   1    79   1     0     1     1  0.0790     0.0790     0.001000  
   1    80   1     0     1     1  0.0800     0.0800     0.001000  
   1    81   1     0     1     1  0.0810     0.0810     0.001000  
   1    82   1     0     1     1  0.0820     0.0820     0.001000  
   1    83   1     0     1     1  0.0830     0.0830     0.001000  
   1    84   1     0     1     1  0.0840     0.0840     0.001000  
   1    85   1     0     1     1  0.0850     0.0850     0.001000  
   1    86   1     0     1     1  0.0860     0.0860     0.001000  
   1    87   1     0     1     1  0.0870     0.0870     0.001000  
   1    88   1     0     1     1  0.0880     0.0880     0.001000  
   1    89   1     0     1     1  0.0890     0.0890     0.001000  
   1    90   1     0     1     1  0.0900     0.0900     0.001000  
   1    91   1     0     1     1  0.0910     0.0910     0.001000  
   1    92   1     0     1     1  0.0920     0.0920     0.001000  
   1    93   1     0     1     1  0.0930     0.0930     0.001000  
   1    94   1     0     1     1  0.0940     0.0940     0.001000  
   1    95   1     0     1     1  0.0950     0.0950     0.001000  
   1    96   1     0     1     1  0.0960     0.0960     0.001000  
   1    97   1     0     1     1  0.0970     0.0970     0.001000  
   1    98   1     0     1     1  0.0980     0.0980     0.001000  
   1    99   1     0     1     1  0.0990     0.0990     0.001000  
   1   100   1     0     1     1  0.100      0.100      0.001000  
                          
 THE ANALYSIS HAS NOT BEEN COMPLETED
