 Abaqus/Standard 2023                  DATE 29-avr.-2024 TIME 17:34:56
 SUMMARY OF JOB INFORMATION:
 STEP  INC ATT SEVERE EQUIL TOTAL  TOTAL      STEP       INC OF       DOF    IF
               DISCON ITERS ITERS  TIME/    TIME/LPF    TIME/LPF    MONITOR RIKS
               ITERS               FREQ
   1     1   1     0     6     6  1.00e-05   1.00e-05   1.000e-05 
   1     2   1     0     1     1  2.00e-05   2.00e-05   1.000e-05 
   1     3   1     0     1     1  3.00e-05   3.00e-05   1.000e-05 
   1     4   1     0     1     1  4.50e-05   4.50e-05   1.500e-05 
   1     5   1     0     1     1  6.75e-05   6.75e-05   2.250e-05 
   1     6   1     0     1     1  0.000101   0.000101   3.375e-05 
   1     7   1     0     1     1  0.000152   0.000152   5.063e-05 
   1     8   1     0     1     1  0.000228   0.000228   7.594e-05 
   1     9   1     0     1     1  0.000342   0.000342   0.0001139 
   1    10   1     0     1     1  0.000513   0.000513   0.0001709 
   1    11   1     0     1     1  0.000769   0.000769   0.0002563 
   1    12   1     0     1     1  0.00115    0.00115    0.0003844 
   1    13   1     0     1     1  0.00173    0.00173    0.0005767 
   1    14   1     0     1     1  0.00259    0.00259    0.0008650 
   1    15   1     0     1     1  0.00389    0.00389    0.001297  
   1    16   1U    0     4     4  0.00389    0.00389    0.001946  
   1    16   2     0     1     1  0.00438    0.00438    0.0004865 
   1    17   1U    0     4     4  0.00438    0.00438    0.0007298 
   1    17   2U    0     4     4  0.00438    0.00438    0.0001825 
   1    17   3U    0     4     4  0.00438    0.00438    4.561e-05 
   1    17   4U    0     4     4  0.00438    0.00438    1.140e-05 
   1    17   5U    0     4     4  0.00438    0.00438    1.000e-05 
                          
 THE ANALYSIS HAS NOT BEEN COMPLETED
