 Abaqus/Standard 2023                  DATE 08-May-2024 TIME 12:01:25
 SUMMARY OF JOB INFORMATION:
 STEP  INC ATT SEVERE EQUIL TOTAL  TOTAL      STEP       INC OF       DOF    IF
               DISCON ITERS ITERS  TIME/    TIME/LPF    TIME/LPF    MONITOR RIKS
               ITERS               FREQ
   1     1   1     0     2     2  1.00e-05   1.00e-05   1.000e-05 
   1     2   1     0     1     1  2.00e-05   2.00e-05   1.000e-05 
   1     3   1     0     1     1  3.50e-05   3.50e-05   1.500e-05 
   1     4   1     0     1     1  5.75e-05   5.75e-05   2.250e-05 
   1     5   1     0     1     1  9.13e-05   9.13e-05   3.375e-05 
   1     6   1     0     1     1  0.000142   0.000142   5.063e-05 
   1     7   1     0     1     1  0.000218   0.000218   7.594e-05 
   1     8   1     0     1     1  0.000332   0.000332   0.0001139 
   1     9   1     0     1     1  0.000503   0.000503   0.0001709 
   1    10   1     0     1     1  0.000759   0.000759   0.0002563 
   1    11   1     0     1     1  0.00114    0.00114    0.0003844 
   1    12   1     0     1     1  0.00172    0.00172    0.0005767 
   1    13   1     0     1     1  0.00258    0.00258    0.0008650 
   1    14   1     0     3     3  0.00388    0.00388    0.001297  
   1    15   1U    0     9     9  0.00388    0.00388    0.001946  
   1    15   2     0     5     5  0.00486    0.00486    0.0009731 
   1    16   1     0     1     1  0.00583    0.00583    0.0009731 
   1    17   1     0     1     1  0.00680    0.00680    0.0009731 
   1    18   1     0     1     1  0.00826    0.00826    0.001460  
   1    19   1     0     6     6  0.0105     0.0105     0.002189  
   1    20   1     0     7     7  0.0126     0.0126     0.002189  
   1    21   1     0     5     5  0.0148     0.0148     0.002189  
   1    22   1     0     5     5  0.0170     0.0170     0.002189  
   1    23   1     0     5     5  0.0192     0.0192     0.002189  
   1    24   1     0     5     5  0.0214     0.0214     0.002189  
   1    25   1     0     4     4  0.0236     0.0236     0.002189  
   1    26   1     0     5     5  0.0258     0.0258     0.002189  
   1    27   1     0     4     4  0.0280     0.0280     0.002189  
   1    28   1     0     5     5  0.0302     0.0302     0.002189  
   1    29   1     0     4     4  0.0323     0.0323     0.002189  
   1    30   1     0     4     4  0.0345     0.0345     0.002189  
   1    31   1     0     4     4  0.0378     0.0378     0.003284  
   1    32   1     0     9     9  0.0427     0.0427     0.004926  
   1    33   1     0     5     5  0.0477     0.0477     0.004926  
   1    34   1     0     6     6  0.0526     0.0526     0.004926  
   1    35   1     0     7     7  0.0575     0.0575     0.004926  
   1    36   1     0     3     3  0.0625     0.0625     0.004926  
   1    37   1     0     4     4  0.0674     0.0674     0.004926  
   1    38   1U    0     4     4  0.0674     0.0674     0.007389  
   1    38   2     0     3     3  0.0692     0.0692     0.001847  
   1    39   1     0    10    10  0.0720     0.0720     0.002771  
   1    40   1     0    10    10  0.0748     0.0748     0.002771  
   1    41   1     0    10    10  0.0775     0.0775     0.002771  
   1    42   1     0    10    10  0.0803     0.0803     0.002771  
   1    43   1     0    10    10  0.0831     0.0831     0.002771  
   1    44   1     0    10    10  0.0859     0.0859     0.002771  
   1    45   1     0    10    10  0.0886     0.0886     0.002771  
   1    46   1     0    10    10  0.0914     0.0914     0.002771  
   1    47   1     0    10    10  0.0942     0.0942     0.002771  
   1    48   1     0    10    10  0.0969     0.0969     0.002771  
   1    49   1     0    10    10  0.0997     0.0997     0.002771  
   1    50   1     0    10    10  0.102      0.102      0.002771  
   1    51   1     0    10    10  0.105      0.105      0.002771  
   1    52   1     0    10    10  0.108      0.108      0.002771  
   1    53   1     0    10    10  0.111      0.111      0.002771  
   1    54   1     0    10    10  0.114      0.114      0.002771  
   1    55   1     0     9     9  0.116      0.116      0.002771  
   1    56   1     0     9     9  0.119      0.119      0.002771  
   1    57   1     0     9     9  0.122      0.122      0.002771  
   1    58   1     0     8     8  0.125      0.125      0.002771  
   1    59   1     0     9     9  0.127      0.127      0.002771  
   1    60   1     0     8     8  0.130      0.130      0.002771  
   1    61   1     0     8     8  0.133      0.133      0.002771  
   1    62   1     0     8     8  0.136      0.136      0.002771  
   1    63   1     0     7     7  0.139      0.139      0.002771  
   1    64   1     0     8     8  0.141      0.141      0.002771  
   1    65   1     0     7     7  0.144      0.144      0.002771  
   1    66   1     0     7     7  0.147      0.147      0.002771  
   1    67   1     0     7     7  0.150      0.150      0.002771  
   1    68   1     0     7     7  0.152      0.152      0.002771  
   1    69   1     0     6     6  0.155      0.155      0.002771  
   1    70   1     0     7     7  0.158      0.158      0.002771  
   1    71   1     0     6     6  0.161      0.161      0.002771  
   1    72   1     0     6     6  0.163      0.163      0.002771  
   1    73   1     0     6     6  0.166      0.166      0.002771  
   1    74   1     0     6     6  0.169      0.169      0.002771  
   1    75   1     0     6     6  0.172      0.172      0.002771  
   1    76   1     0     5     5  0.175      0.175      0.002771  
   1    77   1     0     6     6  0.177      0.177      0.002771  
   1    78   1     0     5     5  0.180      0.180      0.002771  
   1    79   1     0     6     6  0.183      0.183      0.002771  
   1    80   1     0     5     5  0.186      0.186      0.002771  
   1    81   1     0     5     5  0.188      0.188      0.002771  
   1    82   1     0     5     5  0.191      0.191      0.002771  
   1    83   1     0     5     5  0.194      0.194      0.002771  
   1    84   1     0     5     5  0.197      0.197      0.002771  
   1    85   1     0     5     5  0.199      0.199      0.002771  
   1    86   1     0     5     5  0.202      0.202      0.002771  
   1    87   1     0     5     5  0.205      0.205      0.002771  
   1    88   1     0     4     4  0.208      0.208      0.002771  
   1    89   1     0     5     5  0.211      0.211      0.002771  
   1    90   1     0     4     4  0.213      0.213      0.002771  
   1    91   1     0     5     5  0.216      0.216      0.002771  
   1    92   1     0     4     4  0.219      0.219      0.002771  
   1    93   1     0     4     4  0.222      0.222      0.002771  
   1    94   1     0     4     4  0.226      0.226      0.004157  
   1    95   1     0     8     8  0.232      0.232      0.006235  
   1    96   1     0     8     8  0.238      0.238      0.006235  
   1    97   1     0     7     7  0.244      0.244      0.006235  
   1    98   1     0     4     4  0.251      0.251      0.006235  
   1    99   1     0     6     6  0.257      0.257      0.006235  
   1   100   1     0     5     5  0.263      0.263      0.006235  
                          
 THE ANALYSIS HAS NOT BEEN COMPLETED
