 Abaqus/Standard 2023                  DATE 17-May-2024 TIME 14:51:26
 SUMMARY OF JOB INFORMATION:
 STEP  INC ATT SEVERE EQUIL TOTAL  TOTAL      STEP       INC OF       DOF    IF
               DISCON ITERS ITERS  TIME/    TIME/LPF    TIME/LPF    MONITOR RIKS
               ITERS               FREQ
   1     1   1     0     2     2  1.00e-05   1.00e-05   1.000e-05 
   1     2   1     0     1     1  2.00e-05   2.00e-05   1.000e-05 
   1     3   1     0     1     1  3.50e-05   3.50e-05   1.500e-05 
   1     4   1     0     1     1  5.75e-05   5.75e-05   2.250e-05 
   1     5   1     0     1     1  9.13e-05   9.13e-05   3.375e-05 
   1     6   1     0     1     1  0.000142   0.000142   5.063e-05 
   1     7   1     0     1     1  0.000218   0.000218   7.594e-05 
   1     8   1     0     1     1  0.000332   0.000332   0.0001139 
   1     9   1     0     1     1  0.000503   0.000503   0.0001709 
   1    10   1     0     1     1  0.000759   0.000759   0.0002563 
   1    11   1     0     1     1  0.00114    0.00114    0.0003844 
   1    12   1     0     2     2  0.00172    0.00172    0.0005767 
   1    13   1     0     7     7  0.00258    0.00258    0.0008650 
   1    14   1     0     1     1  0.00345    0.00345    0.0008650 
   1    15   1     0     1     1  0.00431    0.00431    0.0008650 
   1    16   1     0     2     2  0.00561    0.00561    0.001297  
   1    17   1     0    10    10  0.00756    0.00756    0.001946  
   1    18   1     0     9     9  0.00950    0.00950    0.001946  
   1    19   1     0     7     7  0.0115     0.0115     0.001946  
   1    20   1     0     6     6  0.0134     0.0134     0.001946  
   1    21   1     0     5     5  0.0153     0.0153     0.001946  
   1    22   1     0     5     5  0.0173     0.0173     0.001946  
   1    23   1     0     5     5  0.0192     0.0192     0.001946  
   1    24   1     0     4     4  0.0212     0.0212     0.001946  
   1    25   1     0     4     4  0.0231     0.0231     0.001946  
   1    26   1     0     1     1  0.0260     0.0260     0.002919  
   1    27   1     0     1     1  0.0304     0.0304     0.004379  
   1    28   1     0     1     1  0.0370     0.0370     0.006568  
   1    29   1     0     1     1  0.0468     0.0468     0.009853  
   1    30   1     0     1     1  0.0616     0.0616     0.01478   
   1    31   1     0     1     1  0.0838     0.0838     0.02217   
   1    32   1     0     1     1  0.117      0.117      0.03325   
   1    33   1     0     1     1  0.167      0.167      0.04988   
   1    34   1     0     1     1  0.242      0.242      0.07482   
   1    35   1     0     1     1  0.342      0.342      0.1000    
   1    36   1     0     1     1  0.442      0.442      0.1000    
   1    37   1     0     1     1  0.542      0.542      0.1000    
   1    38   1     0     1     1  0.642      0.642      0.1000    
   1    39   1     0     1     1  0.742      0.742      0.1000    
   1    40   1     0     1     1  0.842      0.842      0.1000    
   1    41   1     0     1     1  0.942      0.942      0.1000    
   1    42   1     0     1     1  1.00       1.00       0.05826   
                          
 THE ANALYSIS HAS COMPLETED SUCCESSFULLY
