 Abaqus/Standard 2023                  DATE 21-May-2024 TIME 17:15:21
 SUMMARY OF JOB INFORMATION:
 STEP  INC ATT SEVERE EQUIL TOTAL  TOTAL      STEP       INC OF       DOF    IF
               DISCON ITERS ITERS  TIME/    TIME/LPF    TIME/LPF    MONITOR RIKS
               ITERS               FREQ
   1     1   1     0     2     2  1.00e-05   1.00e-05   1.000e-05 
   1     2   1     0     1     1  2.00e-05   2.00e-05   1.000e-05 
   1     3   1     0     1     1  3.50e-05   3.50e-05   1.500e-05 
   1     4   1     0     1     1  5.75e-05   5.75e-05   2.250e-05 
   1     5   1     0     1     1  9.13e-05   9.13e-05   3.375e-05 
   1     6   1     0     1     1  0.000142   0.000142   5.063e-05 
   1     7   1     0     1     1  0.000218   0.000218   7.594e-05 
   1     8   1     0     1     1  0.000332   0.000332   0.0001139 
   1     9   1     0     1     1  0.000503   0.000503   0.0001709 
   1    10   1     0     1     1  0.000759   0.000759   0.0002563 
   1    11   1     0     1     1  0.00114    0.00114    0.0003844 
   1    12   1     0     2     2  0.00172    0.00172    0.0005767 
   1    13   1     0     8     8  0.00258    0.00258    0.0008650 
   1    14   1     0     7     7  0.00345    0.00345    0.0008650 
   1    15   1     0     2     2  0.00431    0.00431    0.0008650 
   1    16   1     0     4     4  0.00518    0.00518    0.0008650 
   1    17   1U    0     9     9  0.00518    0.00518    0.001297  
   1    17   2     0     1     1  0.00583    0.00583    0.0006487 
   1    18   1     0     3     3  0.00680    0.00680    0.0009731 
   1    19   1U    0     9     9  0.00680    0.00680    0.001460  
   1    19   2     0     2     2  0.00753    0.00753    0.0007298 
   1    20   1     0     1     1  0.00863    0.00863    0.001095  
   1    21   1U    0     4     4  0.00863    0.00863    0.001642  
   1    21   2     0     1     1  0.00904    0.00904    0.0004105 
   1    22   1     0     1     1  0.00965    0.00965    0.0006158 
   1    23   1     0     2     2  0.0106     0.0106     0.0009237 
   1    24   1     0     1     1  0.0120     0.0120     0.001386  
   1    25   1U    0     5     5  0.0120     0.0120     0.002078  
   1    25   2     0     1     1  0.0125     0.0125     0.0005196 
   1    26   1     0     2     2  0.0133     0.0133     0.0007794 
   1    27   1     0     1     1  0.0144     0.0144     0.001169  
   1    28   1U    0     5     5  0.0144     0.0144     0.001754  
   1    28   2     0     1     1  0.0149     0.0149     0.0004384 
   1    29   1     0     1     1  0.0155     0.0155     0.0006576 
   1    30   1     0     3     3  0.0165     0.0165     0.0009864 
   1    31   1     0    10    10  0.0180     0.0180     0.001480  
   1    32   1     0     5     5  0.0195     0.0195     0.001480  
   1    33   1     0     8     8  0.0210     0.0210     0.001480  
   1    34   1     0     1     1  0.0224     0.0224     0.001480  
   1    35   1     0     3     3  0.0239     0.0239     0.001480  
   1    36   1U    0     5     5  0.0239     0.0239     0.002219  
   1    36   2     0     1     1  0.0245     0.0245     0.0005548 
   1    37   1     0     2     2  0.0253     0.0253     0.0008323 
   1    38   1     0     1     1  0.0265     0.0265     0.001248  
   1    39   1U    0     5     5  0.0265     0.0265     0.001873  
   1    39   2     0     1     1  0.0270     0.0270     0.0004681 
   1    40   1     0     1     1  0.0277     0.0277     0.0007022 
   1    41   1     0     2     2  0.0288     0.0288     0.001053  
   1    42   1     0     1     1  0.0303     0.0303     0.001580  
   1    43   1U    0     4     4  0.0303     0.0303     0.002370  
   1    43   2     0     1     1  0.0309     0.0309     0.0005925 
   1    44   1     0     1     1  0.0318     0.0318     0.0008887 
   1    45   1     0     4     4  0.0332     0.0332     0.001333  
   1    46   1U    0     4     4  0.0332     0.0332     0.002000  
   1    46   2     0     1     1  0.0337     0.0337     0.0004999 
   1    47   1     0     2     2  0.0344     0.0344     0.0007499 
   1    48   1     0     1     1  0.0355     0.0355     0.001125  
   1    49   1     0     5     5  0.0372     0.0372     0.001687  
   1    50   1     0     2     2  0.0389     0.0389     0.001687  
   1    51   1     0     1     1  0.0406     0.0406     0.001687  
   1    52   1U    0     4     4  0.0406     0.0406     0.002531  
   1    52   2     0     1     1  0.0412     0.0412     0.0006327 
   1    53   1     0     1     1  0.0422     0.0422     0.0009491 
   1    54   1     0     3     3  0.0436     0.0436     0.001424  
   1    55   1U    0     5     5  0.0436     0.0436     0.002135  
   1    55   2     0     1     1  0.0441     0.0441     0.0005338 
   1    56   1     0     1     1  0.0449     0.0449     0.0008008 
   1    57   1     0     2     2  0.0461     0.0461     0.001201  
   1    58   1     0     1     1  0.0479     0.0479     0.001802  
   1    59   1U    0     4     4  0.0479     0.0479     0.002703  
   1    59   2     0     1     1  0.0486     0.0486     0.0006756 
   1    60   1     0     1     1  0.0496     0.0496     0.001013  
   1    61   1     0     5     5  0.0512     0.0512     0.001520  
   1    62   1     0     2     2  0.0527     0.0527     0.001520  
   1    63   1     0     1     1  0.0542     0.0542     0.001520  
   1    64   1U    0     4     4  0.0542     0.0542     0.002280  
   1    64   2     0     1     1  0.0548     0.0548     0.0005701 
   1    65   1     0     1     1  0.0556     0.0556     0.0008551 
   1    66   1     0     3     3  0.0569     0.0569     0.001283  
   1    67   1U    0     9     9  0.0569     0.0569     0.001924  
   1    67   2     0     2     2  0.0579     0.0579     0.0009620 
   1    68   1     0     1     1  0.0593     0.0593     0.001443  
   1    69   1     0     1     1  0.0615     0.0615     0.002165  
   1    70   1     0     2     2  0.0647     0.0647     0.003247  
   1    71   1U    0     4     4  0.0647     0.0647     0.004870  
   1    71   2     0     1     1  0.0659     0.0659     0.001218  
   1    72   1     0     1     1  0.0678     0.0678     0.001826  
   1    73   1     0     1     1  0.0705     0.0705     0.002739  
   1    74   1U    0     4     4  0.0705     0.0705     0.004109  
   1    74   2     0     1     1  0.0715     0.0715     0.001027  
   1    75   1     0     1     1  0.0731     0.0731     0.001541  
   1    76   1U    0     6     6  0.0731     0.0731     0.002311  
   1    76   2     0     1     1  0.0736     0.0736     0.0005779 
   1    77   1     0     1     1  0.0745     0.0745     0.0008668 
   1    78   1     0     2     2  0.0758     0.0758     0.001300  
   1    79   1     0     5     5  0.0778     0.0778     0.001950  
   1    80   1     0     4     4  0.0797     0.0797     0.001950  
   1    81   1     0     1     1  0.0817     0.0817     0.001950  
   1    82   1U    0     4     4  0.0817     0.0817     0.002925  
   1    82   2     0     1     1  0.0824     0.0824     0.0007313 
   1    83   1     0     1     1  0.0835     0.0835     0.001097  
   1    84   1     0     3     3  0.0851     0.0851     0.001646  
   1    85   1U    0     5     5  0.0851     0.0851     0.002468  
   1    85   2     0     1     1  0.0858     0.0858     0.0006171 
   1    86   1     0     1     1  0.0867     0.0867     0.0009256 
   1    87   1     0     3     3  0.0881     0.0881     0.001388  
   1    88   1     0    10    10  0.0902     0.0902     0.002083  
   1    89   1     0     9     9  0.0922     0.0922     0.002083  
   1    90   1     0     8     8  0.0943     0.0943     0.002083  
   1    91   1     0     1     1  0.0964     0.0964     0.002083  
   1    92   1     0     3     3  0.0985     0.0985     0.002083  
   1    93   1     0     1     1  0.102      0.102      0.003124  
   1    94   1U    0     4     4  0.102      0.102      0.004686  
   1    94   2     0     1     1  0.103      0.103      0.001171  
   1    95   1     0     4     4  0.105      0.105      0.001757  
   1    96   1     0     1     1  0.107      0.107      0.002636  
   1    97   1U    0     4     4  0.107      0.107      0.003954  
   1    97   2     0     1     1  0.108      0.108      0.0009884 
   1    98   1     0     2     2  0.110      0.110      0.001483  
   1    99   1     0     9     9  0.112      0.112      0.002224  
   1   100   1     0     6     6  0.114      0.114      0.002224  
                          
 THE ANALYSIS HAS NOT BEEN COMPLETED
