 Abaqus/Standard 2023                  DATE 07-mai-2024 TIME 11:48:02
 SUMMARY OF JOB INFORMATION:
 STEP  INC ATT SEVERE EQUIL TOTAL  TOTAL      STEP       INC OF       DOF    IF
               DISCON ITERS ITERS  TIME/    TIME/LPF    TIME/LPF    MONITOR RIKS
               ITERS               FREQ
   1     1   1     0    10    10  0.0200     0.0200     0.02000   
   1     2   1U    0     4     4  0.0200     0.0200     0.02000   
   1     2   2     0     8     8  0.0250     0.0250     0.005000  
   1     3   1     0     1     1  0.0300     0.0300     0.005000  
   1     4   1     0     1     1  0.0350     0.0350     0.005000  
   1     5   1     0     4     4  0.0425     0.0425     0.007500  
   1     6   1     0     3     3  0.0538     0.0538     0.01125   
   1     7   1     0     3     3  0.0706     0.0706     0.01688   
   1     8   1U    0     4     4  0.0706     0.0706     0.02531   
   1     8   2     0     1     1  0.0770     0.0770     0.006328  
   1     9   1U    0     6     6  0.0770     0.0770     0.009492  
   1     9   2     0     1     1  0.0793     0.0793     0.002373  
   1    10   1     0     1     1  0.0829     0.0829     0.003560  
   1    11   1     0     1     1  0.0882     0.0882     0.005339  
   1    12   1     0     2     2  0.0962     0.0962     0.008009  
   1    13   1     0     3     3  0.108      0.108      0.01201   
   1    14   1     0     3     3  0.126      0.126      0.01802   
   1    15   1U    0     4     4  0.126      0.126      0.02703   
   1    15   2     0     1     1  0.133      0.133      0.006758  
   1    16   1U    0     8     8  0.133      0.133      0.01014   
   1    16   2     0     1     1  0.136      0.136      0.002534  
   1    17   1     0     1     1  0.139      0.139      0.003801  
   1    18   1     0     1     1  0.145      0.145      0.005702  
   1    19   1     0     3     3  0.154      0.154      0.008553  
   1    20   1     0     3     3  0.166      0.166      0.01283   
   1    21   1     0     3     3  0.186      0.186      0.01924   
   1    22   1U    0     4     4  0.186      0.186      0.02887   
   1    22   2     0     1     1  0.193      0.193      0.007216  
   1    23   1U    0     6     6  0.193      0.193      0.01082   
   1    23   2     0     1     1  0.196      0.196      0.002706  
   1    24   1     0     1     1  0.200      0.200      0.004059  
   1    25   1     0     1     1  0.206      0.206      0.006089  
   1    26   1     0     3     3  0.215      0.215      0.009133  
   1    27   1     0     3     3  0.229      0.229      0.01370   
   1    28   1     0     4     4  0.249      0.249      0.02055   
   1    29   1U    0     4     4  0.249      0.249      0.03000   
   1    29   2     0     2     2  0.257      0.257      0.007500  
   1    30   1U    0    10    10  0.257      0.257      0.01125   
   1    30   2     0     1     1  0.259      0.259      0.002812  
   1    31   1     0     1     1  0.264      0.264      0.004219  
   1    32   1     0     1     1  0.270      0.270      0.006328  
   1    33   1     0     1     1  0.279      0.279      0.009492  
   1    34   1     0     3     3  0.294      0.294      0.01424   
   1    35   1     0     4     4  0.315      0.315      0.02136   
   1    36   1U    0     4     4  0.315      0.315      0.03000   
   1    36   2     0     2     2  0.323      0.323      0.007500  
   1    37   1     0     8     8  0.334      0.334      0.01125   
   1    38   1     0    10    10  0.345      0.345      0.01125   
   1    39   1     0    10    10  0.356      0.356      0.01125   
   1    40   1     0    10    10  0.368      0.368      0.01125   
   1    41   1     0     7     7  0.379      0.379      0.01125   
   1    42   1     0     8     8  0.390      0.390      0.01125   
   1    43   1     0     7     7  0.401      0.401      0.01125   
   1    44   1     0     7     7  0.413      0.413      0.01125   
   1    45   1     0     6     6  0.424      0.424      0.01125   
   1    46   1     0     6     6  0.435      0.435      0.01125   
   1    47   1     0     6     6  0.446      0.446      0.01125   
   1    48   1     0     5     5  0.458      0.458      0.01125   
   1    49   1     0     5     5  0.469      0.469      0.01125   
   1    50   1     0     5     5  0.480      0.480      0.01125   
   1    51   1     0     5     5  0.491      0.491      0.01125   
   1    52   1     0     4     4  0.503      0.503      0.01125   
   1    53   1     0     5     5  0.514      0.514      0.01125   
   1    54   1     0     4     4  0.525      0.525      0.01125   
   1    55   1     0     4     4  0.536      0.536      0.01125   
   1    56   1     0     3     3  0.553      0.553      0.01688   
   1    57   1     0     3     3  0.579      0.579      0.02531   
   1    58   1U    0     4     4  0.579      0.579      0.03000   
   1    58   2     0     1     1  0.586      0.586      0.007500  
   1    59   1     0     3     3  0.597      0.597      0.01125   
   1    60   1     0     6     6  0.614      0.614      0.01688   
   1    61   1     0     4     4  0.631      0.631      0.01688   
   1    62   1     0     5     5  0.648      0.648      0.01688   
   1    63   1     0     5     5  0.665      0.665      0.01688   
   1    64   1     0     6     6  0.682      0.682      0.01688   
   1    65   1     0     8     8  0.699      0.699      0.01688   
   1    66   1     0     6     6  0.715      0.715      0.01688   
   1    67   1     0     8     8  0.732      0.732      0.01688   
   1    68   1     0     7     7  0.749      0.749      0.01688   
   1    69   1     0     2     2  0.766      0.766      0.01688   
   1    70   1U    0     7     7  0.766      0.766      0.01688   
   1    70   2     0     1     1  0.770      0.770      0.004219  
   1    71   1     0     1     1  0.777      0.777      0.006328  
   1    72   1     0     1     1  0.786      0.786      0.009492  
   1    73   1     0     5     5  0.800      0.800      0.01424   
   1    74   1     0    10    10  0.815      0.815      0.01424   
   1    75   1     0     9     9  0.829      0.829      0.01424   
   1    76   1     0     8     8  0.843      0.843      0.01424   
   1    77   1     0     8     8  0.857      0.857      0.01424   
   1    78   1     0     7     7  0.871      0.871      0.01424   
   1    79   1     0     7     7  0.886      0.886      0.01424   
   1    80   1     0     7     7  0.900      0.900      0.01424   
   1    81   1     0     6     6  0.914      0.914      0.01424   
   1    82   1     0     7     7  0.928      0.928      0.01424   
   1    83   1     0     6     6  0.943      0.943      0.01424   
   1    84   1     0     6     6  0.957      0.957      0.01424   
   1    85   1     0     6     6  0.971      0.971      0.01424   
   1    86   1     0     6     6  0.985      0.985      0.01424   
   1    87   1     0     5     5  1.00       1.00       0.01424   
   1    88   1     0     1     1  1.00       1.00       0.0003620 
                          
 THE ANALYSIS HAS COMPLETED SUCCESSFULLY
