*Heading
** Job name: UT_clement Model name: Model-1
** Generated by: Abaqus/CAE 2023
*Preprint, echo=NO, model=NO, history=NO, contact=NO
**
** PARTS
**
*Part, name=Part-1
*Node
      1,          -5.,           0.,           5.
      2,          -5.,           5.,           5.
      3,          -5.,           0.,           0.
      4,          -5.,           5.,           0.
      5,           0.,           0.,           5.
      6,           0.,           5.,           5.
      7,           0.,           0.,           0.
      8,           0.,           5.,           0.
*Element, type=C3D8
1, 5, 6, 8, 7, 1, 2, 4, 3
*Nset, nset=XMIN, generate
 1,  4,  1
*Elset, elset=XMIN
 1,
*Nset, nset=XLOAD, generate
 5,  8,  1
*Elset, elset=XLOAD
 1,
*Nset, nset=YMIN, generate
 1,  7,  2
*Elset, elset=YMIN
 1,
*Nset, nset=ZMIN
 3, 4, 7, 8
*Elset, elset=ZMIN
 1,
*Elset, elset=ELALL
 1,
** Section: Section-1
*Solid Section, elset=ELALL, material=mat
,
*End Part
**  
**
** ASSEMBLY
**
*Assembly, name=Assembly
**  
*Instance, name=Part-1-1, part=Part-1
*End Instance
**  
*End Assembly
*Amplitude, name=Amp-1
             0.,              0.,              1.,              1.
** 
** MATERIALS
** 
*Material, name=mat
*INCLUDE, INPUT=dp780_deg4_mises.inp
*DEPVAR
1
*Density
 7e-85,
** ----------------------------------------------------------------
** 
** STEP: Step-1
** 
*Step, name=Step-1, nlgeom=YES
*Static
0.02, 1., 1e-05, 0.03
** 
** BOUNDARY CONDITIONS
** 
** Name: BC-1 Type: Symmetry/Antisymmetry/Encastre
*Boundary
Part-1-1.XMIN, XSYMM
** Name: BC-2 Type: Symmetry/Antisymmetry/Encastre
*Boundary
Part-1-1.YMIN, YSYMM
** Name: BC-3 Type: Symmetry/Antisymmetry/Encastre
*Boundary
Part-1-1.ZMIN, ZSYMM
** Name: BC-4 Type: Displacement/Rotation
*Boundary
Part-1-1.XLOAD, 1, 1, 1.
** 
** OUTPUT REQUESTS
** 
*Restart, write, frequency=0
** 
** FIELD OUTPUT: F-Output-1
** 
*Output, field, variable=PRESELECT
** 
** HISTORY OUTPUT: H-Output-1
** 
*Output, history, variable=PRESELECT
*End Step
