 Abaqus/Standard 2023                  DATE 07-mai-2024 TIME 14:11:53
 SUMMARY OF JOB INFORMATION:
 STEP  INC ATT SEVERE EQUIL TOTAL  TOTAL      STEP       INC OF       DOF    IF
               DISCON ITERS ITERS  TIME/    TIME/LPF    TIME/LPF    MONITOR RIKS
               ITERS               FREQ
   1     1   1     0     7     7  0.0200     0.0200     0.02000   
   1     2   1U    0     4     4  0.0200     0.0200     0.02000   
   1     2   2     0     5     5  0.0250     0.0250     0.005000  
   1     3   1     0     1     1  0.0300     0.0300     0.005000  
   1     4   1     0     1     1  0.0350     0.0350     0.005000  
   1     5   1     0     2     2  0.0425     0.0425     0.007500  
   1     6   1     0     8     8  0.0538     0.0538     0.01125   
   1     7   1     0     9     9  0.0650     0.0650     0.01125   
   1     8   1     0     7     7  0.0762     0.0762     0.01125   
   1     9   1     0     7     7  0.0875     0.0875     0.01125   
   1    10   1     0     6     6  0.0987     0.0987     0.01125   
   1    11   1     0     6     6  0.110      0.110      0.01125   
   1    12   1     0     5     5  0.121      0.121      0.01125   
   1    13   1     0     5     5  0.132      0.132      0.01125   
   1    14   1     0     5     5  0.144      0.144      0.01125   
   1    15   1     0     5     5  0.155      0.155      0.01125   
   1    16   1     0     4     4  0.166      0.166      0.01125   
   1    17   1     0     4     4  0.178      0.178      0.01125   
   1    18   1U    0     9     9  0.178      0.178      0.01688   
   1    18   2     0     2     2  0.186      0.186      0.008438  
   1    19   1     0     5     5  0.199      0.199      0.01266   
   1    20   1     0     7     7  0.211      0.211      0.01266   
   1    21   1     0     6     6  0.224      0.224      0.01266   
   1    22   1     0     6     6  0.237      0.237      0.01266   
   1    23   1U    0     5     5  0.237      0.237      0.01266   
   1    23   2     0     1     1  0.240      0.240      0.003164  
   1    24   1     0     1     1  0.243      0.243      0.003164  
   1    25   1     0     1     1  0.248      0.248      0.004746  
   1    26   1     0     1     1  0.255      0.255      0.007119  
   1    27   1     0     2     2  0.265      0.265      0.01068   
   1    28   1U    0     6     6  0.265      0.265      0.01602   
   1    28   2     0     1     1  0.269      0.269      0.004005  
   1    29   1     0     1     1  0.275      0.275      0.006007  
   1    30   1     0     1     1  0.284      0.284      0.009010  
   1    31   1     0     5     5  0.298      0.298      0.01352   
   1    32   1     0     6     6  0.311      0.311      0.01352   
   1    33   1U    0     7     7  0.311      0.311      0.01352   
   1    33   2     0     1     1  0.315      0.315      0.003379  
   1    34   1     0     1     1  0.318      0.318      0.003379  
   1    35   1     0     1     1  0.323      0.323      0.005068  
   1    36   1     0     1     1  0.331      0.331      0.007602  
   1    37   1U    0     4     4  0.331      0.331      0.01140   
   1    37   2     0     1     1  0.334      0.334      0.002851  
   1    38   1     0     1     1  0.338      0.338      0.004276  
   1    39   1     0     1     1  0.344      0.344      0.006414  
   1    40   1U    0     9     9  0.344      0.344      0.009622  
   1    40   2     0     1     1  0.349      0.349      0.004811  
   1    41   1     0     1     1  0.356      0.356      0.007216  
   1    42   1     0     3     3  0.367      0.367      0.01082   
   1    43   1U    0     9     9  0.367      0.367      0.01624   
   1    43   2U    0     5     5  0.367      0.367      0.008118  
   1    43   3     0     1     1  0.369      0.369      0.002030  
   1    44   1     0     1     1  0.372      0.372      0.003044  
   1    45   1     0     1     1  0.377      0.377      0.004567  
   1    46   1U    0     5     5  0.377      0.377      0.006850  
   1    46   2     0     1     1  0.379      0.379      0.001712  
   1    47   1     0     1     1  0.381      0.381      0.002569  
   1    48   1     0     1     1  0.385      0.385      0.003853  
   1    49   1U    0     5     5  0.385      0.385      0.005780  
   1    49   2     0     1     1  0.387      0.387      0.001445  
   1    50   1     0     1     1  0.389      0.389      0.002167  
   1    51   1     0     1     1  0.392      0.392      0.003251  
   1    52   1     0     6     6  0.397      0.397      0.004876  
   1    53   1     0    10    10  0.402      0.402      0.004876  
   1    54   1     0     7     7  0.407      0.407      0.004876  
   1    55   1     0     3     3  0.411      0.411      0.004876  
   1    56   1     0     1     1  0.416      0.416      0.004876  
   1    57   1     0     1     1  0.424      0.424      0.007315  
   1    58   1     0     2     2  0.435      0.435      0.01097   
   1    59   1     0     2     2  0.451      0.451      0.01646   
   1    60   1U    0     4     4  0.451      0.451      0.02469   
   1    60   2     0     3     3  0.457      0.457      0.006172  
   1    61   1     0     1     1  0.467      0.467      0.009258  
   1    62   1     0     2     2  0.480      0.480      0.01389   
   1    63   1U    0     4     4  0.480      0.480      0.02083   
   1    63   2     0     3     3  0.486      0.486      0.005207  
   1    64   1     0     3     3  0.493      0.493      0.007811  
   1    65   1     0     1     1  0.505      0.505      0.01172   
   1    66   1U    0     4     4  0.505      0.505      0.01758   
   1    66   2     0     3     3  0.510      0.510      0.004394  
   1    67   1U    0     5     5  0.510      0.510      0.006591  
   1    67   2     0     1     1  0.511      0.511      0.001648  
   1    68   1     0    10    10  0.514      0.514      0.002472  
   1    69   1     0    10    10  0.516      0.516      0.002472  
   1    70   1     0    10    10  0.519      0.519      0.002472  
   1    71   1     0     1     1  0.521      0.521      0.002472  
   1    72   1     0     1     1  0.524      0.524      0.002472  
   1    73   1     0     4     4  0.527      0.527      0.003707  
   1    74   1     0     2     2  0.533      0.533      0.005561  
   1    75   1     0     1     1  0.541      0.541      0.008341  
   1    76   1U    0     4     4  0.541      0.541      0.01251   
   1    76   2     0     1     1  0.544      0.544      0.003128  
   1    77   1     0     1     1  0.549      0.549      0.004692  
   1    78   1     0     1     1  0.556      0.556      0.007038  
   1    79   1     0     1     1  0.567      0.567      0.01056   
   1    80   1U    0     4     4  0.567      0.567      0.01584   
   1    80   2     0     2     2  0.571      0.571      0.003959  
   1    81   1     0     4     4  0.576      0.576      0.005938  
   1    82   1     0     1     1  0.585      0.585      0.008907  
   1    83   1U    0     4     4  0.585      0.585      0.01336   
   1    83   2U    0    10    10  0.585      0.585      0.003340  
   1    83   3     0     1     1  0.587      0.587      0.001670  
   1    84   1     0     1     1  0.590      0.590      0.002505  
   1    85   1     0     2     2  0.593      0.593      0.003758  
   1    86   1U    0     6     6  0.593      0.593      0.005637  
   1    86   2     0     1     1  0.595      0.595      0.001409  
   1    87   1     0     1     1  0.597      0.597      0.002114  
   1    88   1     0     1     1  0.600      0.600      0.003171  
   1    89   1U    0     5     5  0.600      0.600      0.004756  
   1    89   2     0     1     1  0.601      0.601      0.001189  
   1    90   1     0     1     1  0.603      0.603      0.001784  
   1    91   1     0     1     1  0.606      0.606      0.002675  
   1    92   1     0     3     3  0.610      0.610      0.004013  
   1    93   1U    0     7     7  0.610      0.610      0.006019  
   1    93   2     0     1     1  0.611      0.611      0.001505  
   1    94   1     0     1     1  0.613      0.613      0.002257  
   1    95   1U    0     9     9  0.613      0.613      0.003386  
   1    95   2     0     1     1  0.615      0.615      0.001693  
   1    96   1     0     1     1  0.618      0.618      0.002539  
   1    97   1     0     2     2  0.621      0.621      0.003809  
   1    98   1     0     6     6  0.627      0.627      0.005714  
   1    99   1     0     1     1  0.633      0.633      0.005714  
   1   100   1U    0     8     8  0.633      0.633      0.005714  
   1   100   2     0     2     2  0.634      0.634      0.001428  
                          
 THE ANALYSIS HAS NOT BEEN COMPLETED
