 Abaqus/Standard 2023                  DATE 22-May-2024 TIME 16:23:27
 SUMMARY OF JOB INFORMATION:
 STEP  INC ATT SEVERE EQUIL TOTAL  TOTAL      STEP       INC OF       DOF    IF
               DISCON ITERS ITERS  TIME/    TIME/LPF    TIME/LPF    MONITOR RIKS
               ITERS               FREQ
   1     1   1     0     2     2  1.00e-05   1.00e-05   1.000e-05 
   1     2   1     0     1     1  2.00e-05   2.00e-05   1.000e-05 
   1     3   1     0     1     1  3.50e-05   3.50e-05   1.500e-05 
   1     4   1     0     1     1  5.75e-05   5.75e-05   2.250e-05 
   1     5   1     0     1     1  9.13e-05   9.13e-05   3.375e-05 
   1     6   1     0     1     1  0.000142   0.000142   5.063e-05 
   1     7   1     0     1     1  0.000218   0.000218   7.594e-05 
   1     8   1     0     1     1  0.000332   0.000332   0.0001139 
   1     9   1     0     1     1  0.000503   0.000503   0.0001709 
   1    10   1     0     1     1  0.000759   0.000759   0.0002563 
   1    11   1     0     1     1  0.00114    0.00114    0.0003844 
   1    12   1     0     1     1  0.00172    0.00172    0.0005767 
   1    13   1     0     1     1  0.00258    0.00258    0.0008650 
   1    14   1     0     2     2  0.00388    0.00388    0.001297  
   1    15   1U    0     4     4  0.00388    0.00388    0.001946  
   1    15   2     0     3     3  0.00437    0.00437    0.0004865 
   1    16   1     0     1     1  0.00510    0.00510    0.0007298 
   1    17   1     0     2     2  0.00619    0.00619    0.001095  
   1    18   1     0     2     2  0.00784    0.00784    0.001642  
   1    19   1     0     4     4  0.0103     0.0103     0.002463  
   1    20   1     0     4     4  0.0140     0.0140     0.003695  
   1    21   1     0     4     4  0.0195     0.0195     0.005542  
   1    22   1     0     1     1  0.0278     0.0278     0.008313  
   1    23   1U    0     6     6  0.0278     0.0278     0.01247   
   1    23   2     0     1     1  0.0310     0.0310     0.003117  
   1    24   1     0     3     3  0.0356     0.0356     0.004676  
   1    25   1     0     7     7  0.0427     0.0427     0.007014  
   1    26   1     0     7     7  0.0497     0.0497     0.007014  
   1    27   1     0     7     7  0.0567     0.0567     0.007014  
   1    28   1     0     7     7  0.0637     0.0637     0.007014  
   1    29   1     0     5     5  0.0707     0.0707     0.007014  
   1    30   1     0     7     7  0.0777     0.0777     0.007014  
   1    31   1     0     7     7  0.0847     0.0847     0.007014  
   1    32   1     0     5     5  0.0918     0.0918     0.007014  
   1    33   1     0     5     5  0.0988     0.0988     0.007014  
   1    34   1     0     7     7  0.106      0.106      0.007014  
   1    35   1     0     5     5  0.113      0.113      0.007014  
   1    36   1     0     5     5  0.120      0.120      0.007014  
   1    37   1     0     5     5  0.127      0.127      0.007014  
   1    38   1     0     5     5  0.134      0.134      0.007014  
   1    39   1     0     5     5  0.141      0.141      0.007014  
   1    40   1     0     5     5  0.148      0.148      0.007014  
   1    41   1     0     5     5  0.155      0.155      0.007014  
   1    42   1     0     5     5  0.162      0.162      0.007014  
   1    43   1     0     5     5  0.169      0.169      0.007014  
   1    44   1     0     5     5  0.176      0.176      0.007014  
   1    45   1     0     5     5  0.183      0.183      0.007014  
   1    46   1     0     5     5  0.190      0.190      0.007014  
   1    47   1     0     5     5  0.197      0.197      0.007014  
   1    48   1     0     5     5  0.204      0.204      0.007014  
   1    49   1     0     5     5  0.211      0.211      0.007014  
   1    50   1     0     5     5  0.218      0.218      0.007014  
   1    51   1     0     5     5  0.225      0.225      0.007014  
   1    52   1     0     5     5  0.232      0.232      0.007014  
   1    53   1     0     5     5  0.239      0.239      0.007014  
   1    54   1     0     5     5  0.246      0.246      0.007014  
   1    55   1     0     5     5  0.253      0.253      0.007014  
   1    56   1     0     5     5  0.260      0.260      0.007014  
   1    57   1     0     5     5  0.267      0.267      0.007014  
   1    58   1     0     5     5  0.274      0.274      0.007014  
   1    59   1     0     5     5  0.281      0.281      0.007014  
   1    60   1     0     5     5  0.288      0.288      0.007014  
   1    61   1     0     5     5  0.295      0.295      0.007014  
   1    62   1     0     5     5  0.302      0.302      0.007014  
   1    63   1     0     5     5  0.309      0.309      0.007014  
   1    64   1     0     3     3  0.316      0.316      0.007014  
   1    65   1     0     3     3  0.323      0.323      0.007014  
   1    66   1     0    10    10  0.334      0.334      0.01052   
   1    67   1     0     3     3  0.344      0.344      0.01052   
   1    68   1     0     7     7  0.355      0.355      0.01052   
   1    69   1     0     2     2  0.365      0.365      0.01052   
   1    70   1U    0     5     5  0.365      0.365      0.01052   
   1    70   2     0     1     1  0.368      0.368      0.002630  
   1    71   1     0     1     1  0.372      0.372      0.003945  
   1    72   1     0     3     3  0.378      0.378      0.005918  
   1    73   1     0     5     5  0.387      0.387      0.008877  
   1    74   1     0     5     5  0.396      0.396      0.008877  
   1    75   1     0     5     5  0.404      0.404      0.008877  
   1    76   1     0     5     5  0.413      0.413      0.008877  
   1    77   1     0     5     5  0.422      0.422      0.008877  
   1    78   1     0     5     5  0.431      0.431      0.008877  
   1    79   1     0     5     5  0.440      0.440      0.008877  
   1    80   1     0     5     5  0.449      0.449      0.008877  
   1    81   1     0     5     5  0.458      0.458      0.008877  
   1    82   1     0     5     5  0.467      0.467      0.008877  
   1    83   1     0     5     5  0.475      0.475      0.008877  
   1    84   1     0     5     5  0.484      0.484      0.008877  
   1    85   1     0     5     5  0.493      0.493      0.008877  
   1    86   1     0     5     5  0.502      0.502      0.008877  
   1    87   1     0     5     5  0.511      0.511      0.008877  
   1    88   1     0     5     5  0.520      0.520      0.008877  
   1    89   1     0     5     5  0.529      0.529      0.008877  
   1    90   1     0     5     5  0.538      0.538      0.008877  
   1    91   1     0     5     5  0.546      0.546      0.008877  
   1    92   1     0     5     5  0.555      0.555      0.008877  
   1    93   1     0     5     5  0.564      0.564      0.008877  
   1    94   1     0     5     5  0.573      0.573      0.008877  
   1    95   1     0     5     5  0.582      0.582      0.008877  
   1    96   1     0     5     5  0.591      0.591      0.008877  
   1    97   1     0     5     5  0.600      0.600      0.008877  
   1    98   1     0     5     5  0.609      0.609      0.008877  
   1    99   1     0     5     5  0.617      0.617      0.008877  
   1   100   1     0     5     5  0.626      0.626      0.008877  
                          
 THE ANALYSIS HAS NOT BEEN COMPLETED
