 Abaqus/Standard 2023                  DATE 23-May-2024 TIME 12:22:05
 SUMMARY OF JOB INFORMATION:
 STEP  INC ATT SEVERE EQUIL TOTAL  TOTAL      STEP       INC OF       DOF    IF
               DISCON ITERS ITERS  TIME/    TIME/LPF    TIME/LPF    MONITOR RIKS
               ITERS               FREQ
   1     1   1     0     2     2  1.00e-05   1.00e-05   1.000e-05 
   1     2   1     0     1     1  2.00e-05   2.00e-05   1.000e-05 
   1     3   1     0     1     1  3.50e-05   3.50e-05   1.500e-05 
   1     4   1     0     1     1  5.75e-05   5.75e-05   2.250e-05 
   1     5   1     0     1     1  9.13e-05   9.13e-05   3.375e-05 
   1     6   1     0     1     1  0.000142   0.000142   5.063e-05 
   1     7   1     0     1     1  0.000218   0.000218   7.594e-05 
   1     8   1     0     1     1  0.000332   0.000332   0.0001139 
   1     9   1     0     1     1  0.000503   0.000503   0.0001709 
   1    10   1     0     1     1  0.000759   0.000759   0.0002563 
   1    11   1     0     1     1  0.00114    0.00114    0.0003844 
   1    12   1     0     1     1  0.00172    0.00172    0.0005767 
   1    13   1     0     1     1  0.00258    0.00258    0.0008650 
   1    14   1     0     2     2  0.00388    0.00388    0.001297  
   1    15   1U    0    16    16  0.00388    0.00388    0.001946  
   1    15   2     0     5     5  0.00437    0.00437    0.0004865 
   1    16   1     0     1     1  0.00486    0.00486    0.0004865 
   1    17   1     0     2     2  0.00534    0.00534    0.0004865 
   1    18   1     0     1     1  0.00607    0.00607    0.0007298 
   1    19   1U    0     4     4  0.00607    0.00607    0.001095  
   1    19   2     0     1     1  0.00635    0.00635    0.0002737 
   1    20   1     0     2     2  0.00676    0.00676    0.0004105 
   1    21   1     0     1     1  0.00737    0.00737    0.0006158 
   1    22   1     0     1     1  0.00830    0.00830    0.0009237 
   1    23   1U    0     7     7  0.00830    0.00830    0.001386  
   1    23   2     0     1     1  0.00864    0.00864    0.0003464 
   1    24   1     0     2     2  0.00916    0.00916    0.0005196 
   1    25   1     0     1     1  0.00994    0.00994    0.0007794 
   1    26   1U    0     6     6  0.00994    0.00994    0.001169  
   1    26   2     0     1     1  0.0102     0.0102     0.0002923 
   1    27   1     0     1     1  0.0107     0.0107     0.0004384 
   1    28   1     0     1     1  0.0113     0.0113     0.0006576 
   1    29   1     0    12    12  0.0123     0.0123     0.0009864 
   1    30   1     0     2     2  0.0131     0.0131     0.0007398 
   1    31   1     0     1     1  0.0138     0.0138     0.0007398 
   1    32   1U    0     4     4  0.0138     0.0138     0.001110  
   1    32   2     0     1     1  0.0141     0.0141     0.0002774 
   1    33   1     0     1     1  0.0145     0.0145     0.0004161 
   1    34   1     0     1     1  0.0151     0.0151     0.0006242 
   1    35   1     0     1     1  0.0160     0.0160     0.0009363 
   1    36   1     0     1     1  0.0175     0.0175     0.001404  
   1    37   1U    0     6     6  0.0175     0.0175     0.002107  
   1    37   2     0     2     2  0.0180     0.0180     0.0005267 
   1    38   1     0     1     1  0.0188     0.0188     0.0007900 
   1    39   1     0     1     1  0.0200     0.0200     0.001185  
   1    40   1     0     1     1  0.0217     0.0217     0.001777  
   1    41   1     0     1     1  0.0244     0.0244     0.002666  
   1    42   1     0     1     1  0.0284     0.0284     0.003999  
   1    43   1     0     1     1  0.0334     0.0334     0.005000  
   1    44   1     0     1     1  0.0384     0.0384     0.005000  
   1    45   1     0     1     1  0.0434     0.0434     0.005000  
   1    46   1     0     8     8  0.0484     0.0484     0.005000  
   1    47   1U    0     8     8  0.0484     0.0484     0.005000  
   1    47   2U    0     4     4  0.0484     0.0484     0.001250  
   1    47   3     0     4     4  0.0487     0.0487     0.0003125 
   1    48   1     0     1     1  0.0490     0.0490     0.0003125 
   1    49   1     0     1     1  0.0495     0.0495     0.0004687 
   1    50   1     0     1     1  0.0502     0.0502     0.0007031 
   1    51   1     0     1     1  0.0512     0.0512     0.001055  
   1    52   1     0     1     1  0.0528     0.0528     0.001582  
   1    53   1     0     1     1  0.0552     0.0552     0.002373  
   1    54   1     0     1     1  0.0588     0.0588     0.003560  
   1    55   1     0     1     1  0.0638     0.0638     0.005000  
   1    56   1     0     7     7  0.0688     0.0688     0.005000  
   1    57   1     0     5     5  0.0738     0.0738     0.005000  
   1    58   1     0     9     9  0.0788     0.0788     0.005000  
   1    59   1     0     7     7  0.0838     0.0838     0.005000  
   1    60   1     0     6     6  0.0888     0.0888     0.005000  
   1    61   1     0    13    13  0.0938     0.0938     0.005000  
   1    62   1     0     1     1  0.0975     0.0975     0.003750  
   1    63   1     0     1     1  0.101      0.101      0.003750  
   1    64   1     0     1     1  0.106      0.106      0.005000  
   1    65   1     0     1     1  0.111      0.111      0.005000  
   1    66   1     0     5     5  0.116      0.116      0.005000  
   1    67   1     0     5     5  0.121      0.121      0.005000  
   1    68   1     0     1     1  0.126      0.126      0.005000  
   1    69   1     0     1     1  0.131      0.131      0.005000  
   1    70   1     0     5     5  0.136      0.136      0.005000  
   1    71   1     0     5     5  0.141      0.141      0.005000  
   1    72   1     0     1     1  0.146      0.146      0.005000  
   1    73   1     0     1     1  0.151      0.151      0.005000  
   1    74   1     0     5     5  0.156      0.156      0.005000  
   1    75   1     0     5     5  0.161      0.161      0.005000  
   1    76   1     0     1     1  0.166      0.166      0.005000  
   1    77   1     0     1     1  0.171      0.171      0.005000  
   1    78   1     0     1     1  0.176      0.176      0.005000  
   1    79   1     0     1     1  0.181      0.181      0.005000  
   1    80   1     0     1     1  0.186      0.186      0.005000  
   1    81   1     0     1     1  0.191      0.191      0.005000  
   1    82   1     0     1     1  0.196      0.196      0.005000  
   1    83   1     0     1     1  0.201      0.201      0.005000  
   1    84   1     0     1     1  0.206      0.206      0.005000  
   1    85   1     0     1     1  0.211      0.211      0.005000  
   1    86   1     0     5     5  0.216      0.216      0.005000  
   1    87   1     0     1     1  0.221      0.221      0.005000  
   1    88   1     0     1     1  0.226      0.226      0.005000  
   1    89   1     0     1     1  0.231      0.231      0.005000  
   1    90   1     0     1     1  0.236      0.236      0.005000  
   1    91   1     0     1     1  0.241      0.241      0.005000  
   1    92   1     0     1     1  0.246      0.246      0.005000  
   1    93   1     0     6     6  0.251      0.251      0.005000  
   1    94   1     0     9     9  0.256      0.256      0.005000  
   1    95   1     0     1     1  0.261      0.261      0.005000  
   1    96   1     0     1     1  0.266      0.266      0.005000  
   1    97   1     0     1     1  0.271      0.271      0.005000  
   1    98   1     0     1     1  0.276      0.276      0.005000  
   1    99   1     0     1     1  0.281      0.281      0.005000  
   1   100   1     0     1     1  0.286      0.286      0.005000  
                          
 THE ANALYSIS HAS NOT BEEN COMPLETED
